                                  MODFLOW-NWT-SWR1 
      U.S. GEOLOGICAL SURVEY MODULAR FINITE-DIFFERENCE GROUNDWATER-FLOW MODEL
                            VERSION 1.3.0 07/01/2022
                    BASED ON MODFLOW-2005 VERSION 1.12.00 02/03/2017

 LIST FILE: hydro_transient.list
                         UNIT    2

 OPENING hydro_transient.dis
 FILE TYPE:DIS   UNIT   11   STATUS:OLD    
 FORMAT:FORMATTED              ACCESS:SEQUENTIAL          

 OPENING hydro_transient.rch
 FILE TYPE:RCH   UNIT   19   STATUS:OLD    
 FORMAT:FORMATTED              ACCESS:SEQUENTIAL          

 OPENING hydro_transient.bas
 FILE TYPE:BAS6   UNIT   13   STATUS:OLD    
 FORMAT:FORMATTED              ACCESS:SEQUENTIAL          

 OPENING hydro_transient.upw
 FILE TYPE:UPW   UNIT   31   STATUS:OLD    
 FORMAT:FORMATTED              ACCESS:SEQUENTIAL          

 OPENING hydro_transient.chd
 FILE TYPE:CHD   UNIT   24   STATUS:OLD    
 FORMAT:FORMATTED              ACCESS:SEQUENTIAL          

 OPENING hydro_transient.nwt
 FILE TYPE:NWT   UNIT   32   STATUS:OLD    
 FORMAT:FORMATTED              ACCESS:SEQUENTIAL          

 OPENING hydro_transient.oc
 FILE TYPE:OC   UNIT   14   STATUS:OLD    
 FORMAT:FORMATTED              ACCESS:SEQUENTIAL          

 OPENING hydro_transient.hds
 FILE TYPE:DATA(BINARY)   UNIT   51   STATUS:REPLACE
 FORMAT:BINARY                 ACCESS:SEQUENTIAL          

 BAS -- BASIC PACKAGE, VERSION 1.3.0, 7/01/2022 INPUT READ FROM UNIT   13
 
 MODFLOW was compiled using mixed precision
 Precision of REAL variables:           6
 Precision of DOUBLE PRECISION variables:          15

 DISCRETIZATION INPUT DATA READ FROM UNIT   11
 # DIS package for MODFLOW-NWT generated by Flopy 3.10.0
    5 LAYERS         1 ROWS        47 COLUMNS
  175 STRESS PERIOD(S) IN SIMULATION
 MODEL TIME UNIT IS DAYS
 MODEL LENGTH UNIT IS METERS
  Confining bed flag for each layer:
   0   0   0   0   0

                     DELR =   1.20000    

                     DELC =   1.00000    



           TOP ELEVATION OF LAYER 1
 READING ON UNIT   11 WITH FORMAT: (47E15.6)           



             MODEL LAYER BOTTOM EL. FOR LAYER   1
 READING ON UNIT   11 WITH FORMAT: (47E15.6)           



             MODEL LAYER BOTTOM EL. FOR LAYER   2
 READING ON UNIT   11 WITH FORMAT: (47E15.6)           



             MODEL LAYER BOTTOM EL. FOR LAYER   3
 READING ON UNIT   11 WITH FORMAT: (47E15.6)           



             MODEL LAYER BOTTOM EL. FOR LAYER   4
 READING ON UNIT   11 WITH FORMAT: (47E15.6)           



             MODEL LAYER BOTTOM EL. FOR LAYER   5
 READING ON UNIT   11 WITH FORMAT: (47E15.6)           


 STRESS PERIOD     LENGTH       TIME STEPS     MULTIPLIER FOR DELT    SS FLAG
 ----------------------------------------------------------------------------
        1         1.000000          1                    1.000         SS
        2         1.000000          1                    1.000         TR
        3         1.000000          1                    1.000         TR
        4         1.000000          1                    1.000         TR
        5         1.000000          1                    1.000         TR
        6         1.000000          1                    1.000         TR
        7         1.000000          1                    1.000         TR
        8         1.000000          1                    1.000         TR
        9         1.000000          1                    1.000         TR
       10         1.000000          1                    1.000         TR
       11         1.000000          1                    1.000         TR
       12         1.000000          1                    1.000         TR
       13         1.000000          1                    1.000         TR
       14         1.000000          1                    1.000         TR
       15         1.000000          1                    1.000         TR
       16         1.000000          1                    1.000         TR
       17         1.000000          1                    1.000         TR
       18         1.000000          1                    1.000         TR
       19         1.000000          1                    1.000         TR
       20         1.000000          1                    1.000         TR
       21         1.000000          1                    1.000         TR
       22         1.000000          1                    1.000         TR
       23         1.000000          1                    1.000         TR
       24         1.000000          1                    1.000         TR
       25         1.000000          1                    1.000         TR
       26         1.000000          1                    1.000         TR
       27         1.000000          1                    1.000         TR
       28         1.000000          1                    1.000         TR
       29         1.000000          1                    1.000         TR
       30         1.000000          1                    1.000         TR
       31         1.000000          1                    1.000         TR
       32         1.000000          1                    1.000         TR
       33         1.000000          1                    1.000         TR
       34         1.000000          1                    1.000         TR
       35         1.000000          1                    1.000         TR
       36         1.000000          1                    1.000         TR
       37         1.000000          1                    1.000         TR
       38         1.000000          1                    1.000         TR
       39         1.000000          1                    1.000         TR
       40         1.000000          1                    1.000         TR
       41         1.000000          1                    1.000         TR
       42         1.000000          1                    1.000         TR
       43         1.000000          1                    1.000         TR
       44         1.000000          1                    1.000         TR
       45         1.000000          1                    1.000         TR
       46         1.000000          1                    1.000         TR
       47         1.000000          1                    1.000         TR
       48         1.000000          1                    1.000         TR
       49         1.000000          1                    1.000         TR
       50         1.000000          1                    1.000         TR
       51         1.000000          1                    1.000         TR
       52         1.000000          1                    1.000         TR
       53         1.000000          1                    1.000         TR
       54         1.000000          1                    1.000         TR
       55         1.000000          1                    1.000         TR
       56         1.000000          1                    1.000         TR
       57         1.000000          1                    1.000         TR
       58         1.000000          1                    1.000         TR
       59         1.000000          1                    1.000         TR
       60         1.000000          1                    1.000         TR
       61         1.000000          1                    1.000         TR
       62         1.000000          1                    1.000         TR
       63         1.000000          1                    1.000         TR
       64         1.000000          1                    1.000         TR
       65         1.000000          1                    1.000         TR
       66         1.000000          1                    1.000         TR
       67         1.000000          1                    1.000         TR
       68         1.000000          1                    1.000         TR
       69         1.000000          1                    1.000         TR
       70         1.000000          1                    1.000         TR
       71         1.000000          1                    1.000         TR
       72         1.000000          1                    1.000         TR
       73         1.000000          1                    1.000         TR
       74         1.000000          1                    1.000         TR
       75         1.000000          1                    1.000         TR
       76         1.000000          1                    1.000         TR
       77         1.000000          1                    1.000         TR
       78         1.000000          1                    1.000         TR
       79         1.000000          1                    1.000         TR
       80         1.000000          1                    1.000         TR
       81         1.000000          1                    1.000         TR
       82         1.000000          1                    1.000         TR
       83         1.000000          1                    1.000         TR
       84         1.000000          1                    1.000         TR
       85         1.000000          1                    1.000         TR
       86         1.000000          1                    1.000         TR
       87         1.000000          1                    1.000         TR
       88         1.000000          1                    1.000         TR
       89         1.000000          1                    1.000         TR
       90         1.000000          1                    1.000         TR
       91         1.000000          1                    1.000         TR
       92         1.000000          1                    1.000         TR
       93         1.000000          1                    1.000         TR
       94         1.000000          1                    1.000         TR
       95         1.000000          1                    1.000         TR
       96         1.000000          1                    1.000         TR
       97         1.000000          1                    1.000         TR
       98         1.000000          1                    1.000         TR
       99         1.000000          1                    1.000         TR
      100         1.000000          1                    1.000         TR
      101         1.000000          1                    1.000         TR
      102         1.000000          1                    1.000         TR
      103         1.000000          1                    1.000         TR
      104         1.000000          1                    1.000         TR
      105         1.000000          1                    1.000         TR
      106         1.000000          1                    1.000         TR
      107         1.000000          1                    1.000         TR
      108         1.000000          1                    1.000         TR
      109         1.000000          1                    1.000         TR
      110         1.000000          1                    1.000         TR
      111         1.000000          1                    1.000         TR
      112         1.000000          1                    1.000         TR
      113         1.000000          1                    1.000         TR
      114         1.000000          1                    1.000         TR
      115         1.000000          1                    1.000         TR
      116         1.000000          1                    1.000         TR
      117         1.000000          1                    1.000         TR
      118         1.000000          1                    1.000         TR
      119         1.000000          1                    1.000         TR
      120         1.000000          1                    1.000         TR
      121         1.000000          1                    1.000         TR
      122         1.000000          1                    1.000         TR
      123         1.000000          1                    1.000         TR
      124         1.000000          1                    1.000         TR
      125         1.000000          1                    1.000         TR
      126         1.000000          1                    1.000         TR
      127         1.000000          1                    1.000         TR
      128         1.000000          1                    1.000         TR
      129         1.000000          1                    1.000         TR
      130         1.000000          1                    1.000         TR
      131         1.000000          1                    1.000         TR
      132         1.000000          1                    1.000         TR
      133         1.000000          1                    1.000         TR
      134         1.000000          1                    1.000         TR
      135         1.000000          1                    1.000         TR
      136         1.000000          1                    1.000         TR
      137         1.000000          1                    1.000         TR
      138         1.000000          1                    1.000         TR
      139         1.000000          1                    1.000         TR
      140         1.000000          1                    1.000         TR
      141         1.000000          1                    1.000         TR
      142         1.000000          1                    1.000         TR
      143         1.000000          1                    1.000         TR
      144         1.000000          1                    1.000         TR
      145         1.000000          1                    1.000         TR
      146         1.000000          1                    1.000         TR
      147         1.000000          1                    1.000         TR
      148         1.000000          1                    1.000         TR
      149         1.000000          1                    1.000         TR
      150         1.000000          1                    1.000         TR
      151         1.000000          1                    1.000         TR
      152         1.000000          1                    1.000         TR
      153         1.000000          1                    1.000         TR
      154         1.000000          1                    1.000         TR
      155         1.000000          1                    1.000         TR
      156         1.000000          1                    1.000         TR
      157         1.000000          1                    1.000         TR
      158         1.000000          1                    1.000         TR
      159         1.000000          1                    1.000         TR
      160         1.000000          1                    1.000         TR
      161         1.000000          1                    1.000         TR
      162         1.000000          1                    1.000         TR
      163         1.000000          1                    1.000         TR
      164         1.000000          1                    1.000         TR
      165         1.000000          1                    1.000         TR
      166         1.000000          1                    1.000         TR
      167         1.000000          1                    1.000         TR
      168         1.000000          1                    1.000         TR
      169         1.000000          1                    1.000         TR
      170         1.000000          1                    1.000         TR
      171         1.000000          1                    1.000         TR
      172         1.000000          1                    1.000         TR
      173         1.000000          1                    1.000         TR
      174         1.000000          1                    1.000         TR
      175         1.000000          1                    1.000         TR

 COMBINED STEADY-STATE AND TRANSIENT SIMULATION



 
 # BAS6 package for MODFLOW-NWT generated by Flopy 3.10.0                        
 THE FREE FORMAT OPTION HAS BEEN SELECTED



                     BOUNDARY ARRAY FOR LAYER   1
 READING ON UNIT   13 WITH FORMAT: (47I10)             



                     BOUNDARY ARRAY FOR LAYER   2
 READING ON UNIT   13 WITH FORMAT: (47I10)             



                     BOUNDARY ARRAY FOR LAYER   3
 READING ON UNIT   13 WITH FORMAT: (47I10)             



                     BOUNDARY ARRAY FOR LAYER   4
 READING ON UNIT   13 WITH FORMAT: (47I10)             



                     BOUNDARY ARRAY FOR LAYER   5
 READING ON UNIT   13 WITH FORMAT: (47I10)             

 AQUIFER HEAD WILL BE SET TO  -999.99     AT ALL NO-FLOW NODES (IBOUND=0).



                       INITIAL HEAD FOR LAYER   1
 READING ON UNIT   13 WITH FORMAT: (47E15.6)           



                       INITIAL HEAD FOR LAYER   2
 READING ON UNIT   13 WITH FORMAT: (47E15.6)           



                       INITIAL HEAD FOR LAYER   3
 READING ON UNIT   13 WITH FORMAT: (47E15.6)           



                       INITIAL HEAD FOR LAYER   4
 READING ON UNIT   13 WITH FORMAT: (47E15.6)           



                       INITIAL HEAD FOR LAYER   5
 READING ON UNIT   13 WITH FORMAT: (47E15.6)           
 # OC package for MODFLOW-NWT generated by Flopy 3.10.0

 OUTPUT CONTROL IS SPECIFIED ONLY AT TIME STEPS FOR WHICH OUTPUT IS DESIRED
 COMPACT CELL-BY-CELL BUDGET FILES WILL BE WRITTEN
 AUXILIARY DATA WILL BE SAVED IN CELL-BY-CELL BUDGET FILES
 HEAD PRINT FORMAT CODE IS   0    DRAWDOWN PRINT FORMAT CODE IS   0
 HEADS WILL BE SAVED ON UNIT   51    DRAWDOWNS WILL BE SAVED ON UNIT    0
 # NWT package for MODFLOW-NWT generated by Flopy 3.10.0

 NWT1 -- Newton Solver, VERSION 1.3.0, 7/01/2022
         INPUT READ FROM UNIT 32

 COMPLEX OPTION:
 DEFAULT SOLVER INPUT VALUES REFLECT STRONGLY NONLINEAR MODEL
 ***GMRES linear solver will be used***
 
   CONVERGENCE CRITERION OF   0.100000E-02 FOR HEAD SOLUTION
   AND A TOLERANCE OF   0.100000E-02 FOR FLOW SOLUTION AND 
   A MAXIMUM OF   500 OUTER ITERATIONS. 


   D-B-D REDUCTION FACTOR OF    0.850000E+00 AND 
   A D-B-D INCREASE FACTOR OF    0.100000E-04 AND 
   A D-B-D RELAXATION OF    0.000000E+00 AND 
   A MOMENTUM FACTOR OF    0.100000E+00 .


   BACKTRACKING IS ACTIVE 
   THE MAXIMUM NUMBER OF BACKTRACKS IS    50 AND 
   THE BACKTRACKING TOLERANCE IS    0.110000E+01 AND
   THE BACKTRACKING REDUCTION FACTOR IS    0.700000E+00

 GMRES -- LINEAR SOLUTION BY GMRES PACKAGE 
     adapted for HYDROTHERM by Kipp and others (2008)
     using software originally developed by Saad (1990) 32
     using algorithms described in Saad (2003)

 UPW1 -- UPSTREAM WEIGHTING FLOW PACKAGE, VERSION 1.3.0, 7/01/2022
         INPUT READ FROM UNIT 31

 # UPW package for MODFLOW-NWT generated by Flopy 3.10.0
 No named parameters

   LAYER FLAGS:
 LAYER       LAYTYP          LAYAVG    CHANI           LAYVKA           LAYWET
 ---------------------------------------------------------------------------
    1             1             0     1.000E+00             0             0
    2             1             0     1.000E+00             0             0
    3             1             0     1.000E+00             0             0
    4             1             0     1.000E+00             0             0
    5             1             0     1.000E+00             0             0

   INTERPRETATION OF LAYER FLAGS:
                        INTERBLOCK     HORIZONTAL    DATA IN
         LAYER TYPE   TRANSMISSIVITY   ANISOTROPY   ARRAY VKA   WETTABILITY
 LAYER   (LAYTYP)        (LAYAVG)      (CHANI)     (LAYVKA)       (LAYWET)
 ---------------------------------------------------------------------------
    1   CONVERTIBLE      HARMONIC     1.000E+00    VERTICAL K  NON-WETTABLE
    2   CONVERTIBLE      HARMONIC     1.000E+00    VERTICAL K  NON-WETTABLE
    3   CONVERTIBLE      HARMONIC     1.000E+00    VERTICAL K  NON-WETTABLE
    4   CONVERTIBLE      HARMONIC     1.000E+00    VERTICAL K  NON-WETTABLE
    5   CONVERTIBLE      HARMONIC     1.000E+00    VERTICAL K  NON-WETTABLE

    HYD. COND. ALONG ROWS =  0.500000     FOR LAYER   1

      VERTICAL HYD. COND. =  5.000000E-02 FOR LAYER   1

         SPECIFIC STORAGE =  1.000000E-05 FOR LAYER   1

           SPECIFIC YIELD =  0.150000     FOR LAYER   1

    HYD. COND. ALONG ROWS =  0.500000     FOR LAYER   2

      VERTICAL HYD. COND. =  5.000000E-02 FOR LAYER   2

         SPECIFIC STORAGE =  1.000000E-05 FOR LAYER   2

           SPECIFIC YIELD =  0.150000     FOR LAYER   2

    HYD. COND. ALONG ROWS =  0.500000     FOR LAYER   3

      VERTICAL HYD. COND. =  5.000000E-02 FOR LAYER   3

         SPECIFIC STORAGE =  1.000000E-05 FOR LAYER   3

           SPECIFIC YIELD =  0.150000     FOR LAYER   3

    HYD. COND. ALONG ROWS =  0.500000     FOR LAYER   4

      VERTICAL HYD. COND. =  5.000000E-02 FOR LAYER   4

         SPECIFIC STORAGE =  1.000000E-05 FOR LAYER   4

           SPECIFIC YIELD =  0.150000     FOR LAYER   4

    HYD. COND. ALONG ROWS =  0.500000     FOR LAYER   5

      VERTICAL HYD. COND. =  5.000000E-02 FOR LAYER   5

         SPECIFIC STORAGE =  1.000000E-05 FOR LAYER   5

           SPECIFIC YIELD =  0.150000     FOR LAYER   5

 RCH -- RECHARGE PACKAGE, VERSION 7, 5/2/2005 INPUT READ FROM UNIT   19
 # RCH package for MODFLOW-NWT generated by Flopy 3.10.0
 No named parameters
 OPTION 3 -- RECHARGE TO HIGHEST ACTIVE NODE IN EACH VERTICAL COLUMN


     0 Recharge parameters

 CHD -- TIME-VARIANT SPECIFIED-HEAD OPTION, VERSION 7, 5/2/2005
 INPUT READ FROM UNIT   24
 # CHD package for MODFLOW-NWT generated by Flopy 3.10.0
 No named parameters
 MAXIMUM OF      2 TIME-VARIANT SPECIFIED-HEAD CELLS AT ONE TIME


     0 TIME-VARIANT SPECIFIED-HEAD PARAMETERS
1
                            STRESS PERIOD NO.    1, LENGTH =   1.000000    
                            -----------------------------------------------

                              NUMBER OF TIME STEPS =     1

                               MULTIPLIER FOR DELT =     1.000

                            INITIAL TIME STEP SIZE =   1.000000    

                 RECHARGE =   0.00000    

 CHD NO.   LAYER   ROW   COL    START HEAD        END HEAD         
 ------------------------------------------------------------------
      1      5      1      1       682.6           682.6    
      2      5      1     47       672.5           672.5    


      2 TIME-VARIANT SPECIFIED-HEAD CELLS
 
 SOLVING FOR HEAD 

    ------------------------------------------------
       NWT REQUIRED            6 OUTER ITERATIONS 
       AND A TOTAL OF          6 INNER ITERATIONS.
    ------------------------------------------------

 OUTPUT CONTROL FOR STRESS PERIOD    1   TIME STEP    1
    SAVE HEAD FOR ALL LAYERS
    SAVE BUDGET

 HEAD WILL BE SAVED ON UNIT   51 AT END OF TIME STEP    1, STRESS PERIOD    1
1
  VOLUMETRIC BUDGET FOR ENTIRE MODEL AT END OF TIME STEP    1, STRESS PERIOD   1
  ------------------------------------------------------------------------------

     CUMULATIVE VOLUMES      L**3       RATES FOR THIS TIME STEP      L**3/T
     ------------------                 ------------------------

           IN:                                      IN:
           ---                                      ---
             STORAGE     =           0.0000               STORAGE     =           0.0000
       CONSTANT HEAD     =       2.6781E-02         CONSTANT HEAD     =       2.6781E-02
            RECHARGE     =           0.0000              RECHARGE     =           0.0000

                TOTAL IN =       2.6781E-02                  TOTAL IN =       2.6781E-02

          OUT:                                     OUT:
          ----                                     ----
             STORAGE     =           0.0000               STORAGE     =           0.0000
       CONSTANT HEAD     =       2.6776E-02         CONSTANT HEAD     =       2.6776E-02
            RECHARGE     =           0.0000              RECHARGE     =           0.0000

               TOTAL OUT =       2.6776E-02                 TOTAL OUT =       2.6776E-02

                IN - OUT =       5.1465E-06                  IN - OUT =       5.1465E-06

     PERCENT DISCREPANCY =           0.02         PERCENT DISCREPANCY =           0.02






         TIME SUMMARY AT END OF TIME STEP    1 IN STRESS PERIOD    1
                    SECONDS     MINUTES      HOURS       DAYS        YEARS
                    -----------------------------------------------------------
   TIME STEP LENGTH  86400.      1440.0      24.000      1.0000     2.73785E-03
 STRESS PERIOD TIME  86400.      1440.0      24.000      1.0000     2.73785E-03
         TOTAL TIME  86400.      1440.0      24.000      1.0000     2.73785E-03
1
1
                            STRESS PERIOD NO.    2, LENGTH =   1.000000    
                            -----------------------------------------------

                              NUMBER OF TIME STEPS =     1

                               MULTIPLIER FOR DELT =     1.000

                            INITIAL TIME STEP SIZE =   1.000000    

                 RECHARGE =   0.00000    

 CHD NO.   LAYER   ROW   COL    START HEAD        END HEAD         
 ------------------------------------------------------------------
      1      5      1      1       682.6           682.6    
      2      5      1     47       672.5           672.5    


      2 TIME-VARIANT SPECIFIED-HEAD CELLS
 
 SOLVING FOR HEAD 

    ------------------------------------------------
       NWT REQUIRED            1 OUTER ITERATIONS 
       AND A TOTAL OF          1 INNER ITERATIONS.
    ------------------------------------------------

 OUTPUT CONTROL FOR STRESS PERIOD    2   TIME STEP    1
    SAVE HEAD FOR ALL LAYERS
    SAVE BUDGET

 HEAD WILL BE SAVED ON UNIT   51 AT END OF TIME STEP    1, STRESS PERIOD    2
1
  VOLUMETRIC BUDGET FOR ENTIRE MODEL AT END OF TIME STEP    1, STRESS PERIOD   2
  ------------------------------------------------------------------------------

     CUMULATIVE VOLUMES      L**3       RATES FOR THIS TIME STEP      L**3/T
     ------------------                 ------------------------

           IN:                                      IN:
           ---                                      ---
             STORAGE     =       1.2146E-06               STORAGE     =       1.2146E-06
       CONSTANT HEAD     =       5.3561E-02         CONSTANT HEAD     =       2.6779E-02
            RECHARGE     =           0.0000              RECHARGE     =           0.0000

                TOTAL IN =       5.3562E-02                  TOTAL IN =       2.6781E-02

          OUT:                                     OUT:
          ----                                     ----
             STORAGE     =       4.3813E-06               STORAGE     =       4.3813E-06
       CONSTANT HEAD     =       5.3553E-02         CONSTANT HEAD     =       2.6777E-02
            RECHARGE     =           0.0000              RECHARGE     =           0.0000

               TOTAL OUT =       5.3557E-02                 TOTAL OUT =       2.6781E-02

                IN - OUT =       4.6343E-06                  IN - OUT =      -5.1223E-07

     PERCENT DISCREPANCY =           0.01         PERCENT DISCREPANCY =          -0.00






         TIME SUMMARY AT END OF TIME STEP    1 IN STRESS PERIOD    2
                    SECONDS     MINUTES      HOURS       DAYS        YEARS
                    -----------------------------------------------------------
   TIME STEP LENGTH  86400.      1440.0      24.000      1.0000     2.73785E-03
 STRESS PERIOD TIME  86400.      1440.0      24.000      1.0000     2.73785E-03
         TOTAL TIME 1.72800E+05  2880.0      48.000      2.0000     5.47570E-03
1
1
                            STRESS PERIOD NO.    3, LENGTH =   1.000000    
                            -----------------------------------------------

                              NUMBER OF TIME STEPS =     1

                               MULTIPLIER FOR DELT =     1.000

                            INITIAL TIME STEP SIZE =   1.000000    

                 RECHARGE =   0.00000    

 CHD NO.   LAYER   ROW   COL    START HEAD        END HEAD         
 ------------------------------------------------------------------
      1      5      1      1       682.6           682.6    
      2      5      1     47       672.5           672.5    


      2 TIME-VARIANT SPECIFIED-HEAD CELLS
 
 SOLVING FOR HEAD 

    ------------------------------------------------
       NWT REQUIRED            1 OUTER ITERATIONS 
       AND A TOTAL OF          1 INNER ITERATIONS.
    ------------------------------------------------

 OUTPUT CONTROL FOR STRESS PERIOD    3   TIME STEP    1
    SAVE HEAD FOR ALL LAYERS
    SAVE BUDGET

 HEAD WILL BE SAVED ON UNIT   51 AT END OF TIME STEP    1, STRESS PERIOD    3
1
  VOLUMETRIC BUDGET FOR ENTIRE MODEL AT END OF TIME STEP    1, STRESS PERIOD   3
  ------------------------------------------------------------------------------

     CUMULATIVE VOLUMES      L**3       RATES FOR THIS TIME STEP      L**3/T
     ------------------                 ------------------------

           IN:                                      IN:
           ---                                      ---
             STORAGE     =       1.8953E-06               STORAGE     =       6.8072E-07
       CONSTANT HEAD     =       8.0340E-02         CONSTANT HEAD     =       2.6779E-02
            RECHARGE     =           0.0000              RECHARGE     =           0.0000

                TOTAL IN =       8.0341E-02                  TOTAL IN =       2.6779E-02

          OUT:                                     OUT:
          ----                                     ----
             STORAGE     =       7.2686E-06               STORAGE     =       2.8873E-06
       CONSTANT HEAD     =       8.0330E-02         CONSTANT HEAD     =       2.6777E-02
            RECHARGE     =           0.0000              RECHARGE     =           0.0000

               TOTAL OUT =       8.0337E-02                 TOTAL OUT =       2.6780E-02

                IN - OUT =       4.3660E-06                  IN - OUT =      -2.6450E-07

     PERCENT DISCREPANCY =           0.01         PERCENT DISCREPANCY =          -0.00






         TIME SUMMARY AT END OF TIME STEP    1 IN STRESS PERIOD    3
                    SECONDS     MINUTES      HOURS       DAYS        YEARS
                    -----------------------------------------------------------
   TIME STEP LENGTH  86400.      1440.0      24.000      1.0000     2.73785E-03
 STRESS PERIOD TIME  86400.      1440.0      24.000      1.0000     2.73785E-03
         TOTAL TIME 2.59200E+05  4320.0      72.000      3.0000     8.21355E-03
1
1
                            STRESS PERIOD NO.    4, LENGTH =   1.000000    
                            -----------------------------------------------

                              NUMBER OF TIME STEPS =     1

                               MULTIPLIER FOR DELT =     1.000

                            INITIAL TIME STEP SIZE =   1.000000    

                 RECHARGE =   0.00000    

 CHD NO.   LAYER   ROW   COL    START HEAD        END HEAD         
 ------------------------------------------------------------------
      1      5      1      1       682.6           682.6    
      2      5      1     47       672.5           672.5    


      2 TIME-VARIANT SPECIFIED-HEAD CELLS
 
 SOLVING FOR HEAD 

    ------------------------------------------------
       NWT REQUIRED            1 OUTER ITERATIONS 
       AND A TOTAL OF          1 INNER ITERATIONS.
    ------------------------------------------------

 OUTPUT CONTROL FOR STRESS PERIOD    4   TIME STEP    1
    SAVE HEAD FOR ALL LAYERS
    SAVE BUDGET

 HEAD WILL BE SAVED ON UNIT   51 AT END OF TIME STEP    1, STRESS PERIOD    4
1
  VOLUMETRIC BUDGET FOR ENTIRE MODEL AT END OF TIME STEP    1, STRESS PERIOD   4
  ------------------------------------------------------------------------------

     CUMULATIVE VOLUMES      L**3       RATES FOR THIS TIME STEP      L**3/T
     ------------------                 ------------------------

           IN:                                      IN:
           ---                                      ---
             STORAGE     =       2.4403E-06               STORAGE     =       5.4496E-07
       CONSTANT HEAD     =           0.1071         CONSTANT HEAD     =       2.6778E-02
            RECHARGE     =           0.0000              RECHARGE     =           0.0000

                TOTAL IN =           0.1071                  TOTAL IN =       2.6779E-02

          OUT:                                     OUT:
          ----                                     ----
             STORAGE     =       9.6354E-06               STORAGE     =       2.3668E-06
       CONSTANT HEAD     =           0.1071         CONSTANT HEAD     =       2.6777E-02
            RECHARGE     =           0.0000              RECHARGE     =           0.0000

               TOTAL OUT =           0.1071                 TOTAL OUT =       2.6779E-02

                IN - OUT =       4.1798E-06                  IN - OUT =      -1.9372E-07

     PERCENT DISCREPANCY =           0.00         PERCENT DISCREPANCY =          -0.00






         TIME SUMMARY AT END OF TIME STEP    1 IN STRESS PERIOD    4
                    SECONDS     MINUTES      HOURS       DAYS        YEARS
                    -----------------------------------------------------------
   TIME STEP LENGTH  86400.      1440.0      24.000      1.0000     2.73785E-03
 STRESS PERIOD TIME  86400.      1440.0      24.000      1.0000     2.73785E-03
         TOTAL TIME 3.45600E+05  5760.0      96.000      4.0000     1.09514E-02
1
1
                            STRESS PERIOD NO.    5, LENGTH =   1.000000    
                            -----------------------------------------------

                              NUMBER OF TIME STEPS =     1

                               MULTIPLIER FOR DELT =     1.000

                            INITIAL TIME STEP SIZE =   1.000000    

                 RECHARGE =   0.00000    

 CHD NO.   LAYER   ROW   COL    START HEAD        END HEAD         
 ------------------------------------------------------------------
      1      5      1      1       682.6           682.6    
      2      5      1     47       672.5           672.5    


      2 TIME-VARIANT SPECIFIED-HEAD CELLS
 
 SOLVING FOR HEAD 

    ------------------------------------------------
       NWT REQUIRED            1 OUTER ITERATIONS 
       AND A TOTAL OF          1 INNER ITERATIONS.
    ------------------------------------------------

 OUTPUT CONTROL FOR STRESS PERIOD    5   TIME STEP    1
    SAVE HEAD FOR ALL LAYERS
    SAVE BUDGET

 HEAD WILL BE SAVED ON UNIT   51 AT END OF TIME STEP    1, STRESS PERIOD    5
1
  VOLUMETRIC BUDGET FOR ENTIRE MODEL AT END OF TIME STEP    1, STRESS PERIOD   5
  ------------------------------------------------------------------------------

     CUMULATIVE VOLUMES      L**3       RATES FOR THIS TIME STEP      L**3/T
     ------------------                 ------------------------

           IN:                                      IN:
           ---                                      ---
             STORAGE     =       2.9312E-06               STORAGE     =       4.9098E-07
       CONSTANT HEAD     =           0.1339         CONSTANT HEAD     =       2.6778E-02
            RECHARGE     =           0.0000              RECHARGE     =           0.0000

                TOTAL IN =           0.1339                  TOTAL IN =       2.6779E-02

          OUT:                                     OUT:
          ----                                     ----
             STORAGE     =       1.1731E-05               STORAGE     =       2.0954E-06
       CONSTANT HEAD     =           0.1339         CONSTANT HEAD     =       2.6777E-02
            RECHARGE     =           0.0000              RECHARGE     =           0.0000

               TOTAL OUT =           0.1339                 TOTAL OUT =       2.6779E-02

                IN - OUT =       4.0233E-06                  IN - OUT =      -1.6205E-07

     PERCENT DISCREPANCY =           0.00         PERCENT DISCREPANCY =          -0.00






         TIME SUMMARY AT END OF TIME STEP    1 IN STRESS PERIOD    5
                    SECONDS     MINUTES      HOURS       DAYS        YEARS
                    -----------------------------------------------------------
   TIME STEP LENGTH  86400.      1440.0      24.000      1.0000     2.73785E-03
 STRESS PERIOD TIME  86400.      1440.0      24.000      1.0000     2.73785E-03
         TOTAL TIME 4.32000E+05  7200.0      120.00      5.0000     1.36893E-02
1
1
                            STRESS PERIOD NO.    6, LENGTH =   1.000000    
                            -----------------------------------------------

                              NUMBER OF TIME STEPS =     1

                               MULTIPLIER FOR DELT =     1.000

                            INITIAL TIME STEP SIZE =   1.000000    

                 RECHARGE =   0.00000    

 CHD NO.   LAYER   ROW   COL    START HEAD        END HEAD         
 ------------------------------------------------------------------
      1      5      1      1       682.6           682.6    
      2      5      1     47       672.5           672.5    


      2 TIME-VARIANT SPECIFIED-HEAD CELLS
 
 SOLVING FOR HEAD 

    ------------------------------------------------
       NWT REQUIRED            1 OUTER ITERATIONS 
       AND A TOTAL OF          1 INNER ITERATIONS.
    ------------------------------------------------

 OUTPUT CONTROL FOR STRESS PERIOD    6   TIME STEP    1
    SAVE HEAD FOR ALL LAYERS
    SAVE BUDGET

 HEAD WILL BE SAVED ON UNIT   51 AT END OF TIME STEP    1, STRESS PERIOD    6
1
  VOLUMETRIC BUDGET FOR ENTIRE MODEL AT END OF TIME STEP    1, STRESS PERIOD   6
  ------------------------------------------------------------------------------

     CUMULATIVE VOLUMES      L**3       RATES FOR THIS TIME STEP      L**3/T
     ------------------                 ------------------------

           IN:                                      IN:
           ---                                      ---
             STORAGE     =       3.3833E-06               STORAGE     =       4.5210E-07
       CONSTANT HEAD     =           0.1607         CONSTANT HEAD     =       2.6778E-02
            RECHARGE     =           0.0000              RECHARGE     =           0.0000

                TOTAL IN =           0.1607                  TOTAL IN =       2.6779E-02

          OUT:                                     OUT:
          ----                                     ----
             STORAGE     =       1.3642E-05               STORAGE     =       1.9110E-06
       CONSTANT HEAD     =           0.1607         CONSTANT HEAD     =       2.6777E-02
            RECHARGE     =           0.0000              RECHARGE     =           0.0000

               TOTAL OUT =           0.1607                 TOTAL OUT =       2.6779E-02

                IN - OUT =       3.8743E-06                  IN - OUT =      -1.4342E-07

     PERCENT DISCREPANCY =           0.00         PERCENT DISCREPANCY =          -0.00






         TIME SUMMARY AT END OF TIME STEP    1 IN STRESS PERIOD    6
                    SECONDS     MINUTES      HOURS       DAYS        YEARS
                    -----------------------------------------------------------
   TIME STEP LENGTH  86400.      1440.0      24.000      1.0000     2.73785E-03
 STRESS PERIOD TIME  86400.      1440.0      24.000      1.0000     2.73785E-03
         TOTAL TIME 5.18400E+05  8640.0      144.00      6.0000     1.64271E-02
1
1
                            STRESS PERIOD NO.    7, LENGTH =   1.000000    
                            -----------------------------------------------

                              NUMBER OF TIME STEPS =     1

                               MULTIPLIER FOR DELT =     1.000

                            INITIAL TIME STEP SIZE =   1.000000    

                 RECHARGE =   0.00000    

 CHD NO.   LAYER   ROW   COL    START HEAD        END HEAD         
 ------------------------------------------------------------------
      1      5      1      1       682.6           682.6    
      2      5      1     47       672.5           672.5    


      2 TIME-VARIANT SPECIFIED-HEAD CELLS
 
 SOLVING FOR HEAD 

    ------------------------------------------------
       NWT REQUIRED            1 OUTER ITERATIONS 
       AND A TOTAL OF          1 INNER ITERATIONS.
    ------------------------------------------------

 OUTPUT CONTROL FOR STRESS PERIOD    7   TIME STEP    1
    SAVE HEAD FOR ALL LAYERS
    SAVE BUDGET

 HEAD WILL BE SAVED ON UNIT   51 AT END OF TIME STEP    1, STRESS PERIOD    7
1
  VOLUMETRIC BUDGET FOR ENTIRE MODEL AT END OF TIME STEP    1, STRESS PERIOD   7
  ------------------------------------------------------------------------------

     CUMULATIVE VOLUMES      L**3       RATES FOR THIS TIME STEP      L**3/T
     ------------------                 ------------------------

           IN:                                      IN:
           ---                                      ---
             STORAGE     =       3.8023E-06               STORAGE     =       4.1900E-07
       CONSTANT HEAD     =           0.1875         CONSTANT HEAD     =       2.6778E-02
            RECHARGE     =           0.0000              RECHARGE     =           0.0000

                TOTAL IN =           0.1875                  TOTAL IN =       2.6779E-02

          OUT:                                     OUT:
          ----                                     ----
             STORAGE     =       1.5416E-05               STORAGE     =       1.7742E-06
       CONSTANT HEAD     =           0.1874         CONSTANT HEAD     =       2.6777E-02
            RECHARGE     =           0.0000              RECHARGE     =           0.0000

               TOTAL OUT =           0.1875                 TOTAL OUT =       2.6779E-02

                IN - OUT =       3.7253E-06                  IN - OUT =      -1.3225E-07

     PERCENT DISCREPANCY =           0.00         PERCENT DISCREPANCY =          -0.00






         TIME SUMMARY AT END OF TIME STEP    1 IN STRESS PERIOD    7
                    SECONDS     MINUTES      HOURS       DAYS        YEARS
                    -----------------------------------------------------------
   TIME STEP LENGTH  86400.      1440.0      24.000      1.0000     2.73785E-03
 STRESS PERIOD TIME  86400.      1440.0      24.000      1.0000     2.73785E-03
         TOTAL TIME 6.04800E+05  10080.      168.00      7.0000     1.91650E-02
1
1
                            STRESS PERIOD NO.    8, LENGTH =   1.000000    
                            -----------------------------------------------

                              NUMBER OF TIME STEPS =     1

                               MULTIPLIER FOR DELT =     1.000

                            INITIAL TIME STEP SIZE =   1.000000    

                 RECHARGE =   0.00000    

 CHD NO.   LAYER   ROW   COL    START HEAD        END HEAD         
 ------------------------------------------------------------------
      1      5      1      1       682.6           682.6    
      2      5      1     47       672.5           672.5    


      2 TIME-VARIANT SPECIFIED-HEAD CELLS
 
 SOLVING FOR HEAD 

    ------------------------------------------------
       NWT REQUIRED            1 OUTER ITERATIONS 
       AND A TOTAL OF          1 INNER ITERATIONS.
    ------------------------------------------------

 OUTPUT CONTROL FOR STRESS PERIOD    8   TIME STEP    1
    SAVE HEAD FOR ALL LAYERS
    SAVE BUDGET

 HEAD WILL BE SAVED ON UNIT   51 AT END OF TIME STEP    1, STRESS PERIOD    8
1
  VOLUMETRIC BUDGET FOR ENTIRE MODEL AT END OF TIME STEP    1, STRESS PERIOD   8
  ------------------------------------------------------------------------------

     CUMULATIVE VOLUMES      L**3       RATES FOR THIS TIME STEP      L**3/T
     ------------------                 ------------------------

           IN:                                      IN:
           ---                                      ---
             STORAGE     =       4.1985E-06               STORAGE     =       3.9617E-07
       CONSTANT HEAD     =           0.2142         CONSTANT HEAD     =       2.6778E-02
            RECHARGE     =           0.0000              RECHARGE     =           0.0000

                TOTAL IN =           0.2142                  TOTAL IN =       2.6778E-02

          OUT:                                     OUT:
          ----                                     ----
             STORAGE     =       1.7092E-05               STORAGE     =       1.6765E-06
       CONSTANT HEAD     =           0.2142         CONSTANT HEAD     =       2.6777E-02
            RECHARGE     =           0.0000              RECHARGE     =           0.0000

               TOTAL OUT =           0.2142                 TOTAL OUT =       2.6779E-02

                IN - OUT =       3.6210E-06                  IN - OUT =      -1.2107E-07

     PERCENT DISCREPANCY =           0.00         PERCENT DISCREPANCY =          -0.00






         TIME SUMMARY AT END OF TIME STEP    1 IN STRESS PERIOD    8
                    SECONDS     MINUTES      HOURS       DAYS        YEARS
                    -----------------------------------------------------------
   TIME STEP LENGTH  86400.      1440.0      24.000      1.0000     2.73785E-03
 STRESS PERIOD TIME  86400.      1440.0      24.000      1.0000     2.73785E-03
         TOTAL TIME 6.91200E+05  11520.      192.00      8.0000     2.19028E-02
1
1
                            STRESS PERIOD NO.    9, LENGTH =   1.000000    
                            -----------------------------------------------

                              NUMBER OF TIME STEPS =     1

                               MULTIPLIER FOR DELT =     1.000

                            INITIAL TIME STEP SIZE =   1.000000    

                 RECHARGE =   0.00000    

 CHD NO.   LAYER   ROW   COL    START HEAD        END HEAD         
 ------------------------------------------------------------------
      1      5      1      1       682.6           682.6    
      2      5      1     47       672.5           672.5    


      2 TIME-VARIANT SPECIFIED-HEAD CELLS
 
 SOLVING FOR HEAD 

    ------------------------------------------------
       NWT REQUIRED            1 OUTER ITERATIONS 
       AND A TOTAL OF          1 INNER ITERATIONS.
    ------------------------------------------------

 OUTPUT CONTROL FOR STRESS PERIOD    9   TIME STEP    1
    SAVE HEAD FOR ALL LAYERS
    SAVE BUDGET

 HEAD WILL BE SAVED ON UNIT   51 AT END OF TIME STEP    1, STRESS PERIOD    9
1
  VOLUMETRIC BUDGET FOR ENTIRE MODEL AT END OF TIME STEP    1, STRESS PERIOD   9
  ------------------------------------------------------------------------------

     CUMULATIVE VOLUMES      L**3       RATES FOR THIS TIME STEP      L**3/T
     ------------------                 ------------------------

           IN:                                      IN:
           ---                                      ---
             STORAGE     =       4.5781E-06               STORAGE     =       3.7961E-07
       CONSTANT HEAD     =           0.2410         CONSTANT HEAD     =       2.6778E-02
            RECHARGE     =           0.0000              RECHARGE     =           0.0000

                TOTAL IN =           0.2410                  TOTAL IN =       2.6778E-02

          OUT:                                     OUT:
          ----                                     ----
             STORAGE     =       1.8699E-05               STORAGE     =       1.6066E-06
       CONSTANT HEAD     =           0.2410         CONSTANT HEAD     =       2.6777E-02
            RECHARGE     =           0.0000              RECHARGE     =           0.0000

               TOTAL OUT =           0.2410                 TOTAL OUT =       2.6779E-02

                IN - OUT =       3.5018E-06                  IN - OUT =      -1.1548E-07

     PERCENT DISCREPANCY =           0.00         PERCENT DISCREPANCY =          -0.00






         TIME SUMMARY AT END OF TIME STEP    1 IN STRESS PERIOD    9
                    SECONDS     MINUTES      HOURS       DAYS        YEARS
                    -----------------------------------------------------------
   TIME STEP LENGTH  86400.      1440.0      24.000      1.0000     2.73785E-03
 STRESS PERIOD TIME  86400.      1440.0      24.000      1.0000     2.73785E-03
         TOTAL TIME 7.77600E+05  12960.      216.00      9.0000     2.46407E-02
1
1
                            STRESS PERIOD NO.   10, LENGTH =   1.000000    
                            -----------------------------------------------

                              NUMBER OF TIME STEPS =     1

                               MULTIPLIER FOR DELT =     1.000

                            INITIAL TIME STEP SIZE =   1.000000    

                 RECHARGE =   0.00000    

 CHD NO.   LAYER   ROW   COL    START HEAD        END HEAD         
 ------------------------------------------------------------------
      1      5      1      1       682.6           682.6    
      2      5      1     47       672.5           672.5    


      2 TIME-VARIANT SPECIFIED-HEAD CELLS
 
 SOLVING FOR HEAD 

    ------------------------------------------------
       NWT REQUIRED            1 OUTER ITERATIONS 
       AND A TOTAL OF          1 INNER ITERATIONS.
    ------------------------------------------------

 OUTPUT CONTROL FOR STRESS PERIOD   10   TIME STEP    1
    SAVE HEAD FOR ALL LAYERS
    SAVE BUDGET

 HEAD WILL BE SAVED ON UNIT   51 AT END OF TIME STEP    1, STRESS PERIOD   10
1
  VOLUMETRIC BUDGET FOR ENTIRE MODEL AT END OF TIME STEP    1, STRESS PERIOD  10
  ------------------------------------------------------------------------------

     CUMULATIVE VOLUMES      L**3       RATES FOR THIS TIME STEP      L**3/T
     ------------------                 ------------------------

           IN:                                      IN:
           ---                                      ---
             STORAGE     =       4.9444E-06               STORAGE     =       3.6625E-07
       CONSTANT HEAD     =           0.2678         CONSTANT HEAD     =       2.6778E-02
            RECHARGE     =           0.0000              RECHARGE     =           0.0000

                TOTAL IN =           0.2678                  TOTAL IN =       2.6778E-02

          OUT:                                     OUT:
          ----                                     ----
             STORAGE     =       2.0255E-05               STORAGE     =       1.5562E-06
       CONSTANT HEAD     =           0.2678         CONSTANT HEAD     =       2.6777E-02
            RECHARGE     =           0.0000              RECHARGE     =           0.0000

               TOTAL OUT =           0.2678                 TOTAL OUT =       2.6778E-02

                IN - OUT =       3.3975E-06                  IN - OUT =      -1.0990E-07

     PERCENT DISCREPANCY =           0.00         PERCENT DISCREPANCY =          -0.00






         TIME SUMMARY AT END OF TIME STEP    1 IN STRESS PERIOD   10
                    SECONDS     MINUTES      HOURS       DAYS        YEARS
                    -----------------------------------------------------------
   TIME STEP LENGTH  86400.      1440.0      24.000      1.0000     2.73785E-03
 STRESS PERIOD TIME  86400.      1440.0      24.000      1.0000     2.73785E-03
         TOTAL TIME 8.64000E+05  14400.      240.00      10.000     2.73785E-02
1
1
                            STRESS PERIOD NO.   11, LENGTH =   1.000000    
                            -----------------------------------------------

                              NUMBER OF TIME STEPS =     1

                               MULTIPLIER FOR DELT =     1.000

                            INITIAL TIME STEP SIZE =   1.000000    

                 RECHARGE =   0.00000    

 CHD NO.   LAYER   ROW   COL    START HEAD        END HEAD         
 ------------------------------------------------------------------
      1      5      1      1       682.6           682.6    
      2      5      1     47       672.5           672.5    


      2 TIME-VARIANT SPECIFIED-HEAD CELLS
 
 SOLVING FOR HEAD 

    ------------------------------------------------
       NWT REQUIRED            1 OUTER ITERATIONS 
       AND A TOTAL OF          1 INNER ITERATIONS.
    ------------------------------------------------

 OUTPUT CONTROL FOR STRESS PERIOD   11   TIME STEP    1
    SAVE HEAD FOR ALL LAYERS
    SAVE BUDGET

 HEAD WILL BE SAVED ON UNIT   51 AT END OF TIME STEP    1, STRESS PERIOD   11
1
  VOLUMETRIC BUDGET FOR ENTIRE MODEL AT END OF TIME STEP    1, STRESS PERIOD  11
  ------------------------------------------------------------------------------

     CUMULATIVE VOLUMES      L**3       RATES FOR THIS TIME STEP      L**3/T
     ------------------                 ------------------------

           IN:                                      IN:
           ---                                      ---
             STORAGE     =       5.2909E-06               STORAGE     =       3.4655E-07
       CONSTANT HEAD     =           0.2946         CONSTANT HEAD     =       2.6778E-02
            RECHARGE     =           0.0000              RECHARGE     =           0.0000

                TOTAL IN =           0.2946                  TOTAL IN =       2.6778E-02

          OUT:                                     OUT:
          ----                                     ----
             STORAGE     =       2.1767E-05               STORAGE     =       1.5121E-06
       CONSTANT HEAD     =           0.2945         CONSTANT HEAD     =       2.6777E-02
            RECHARGE     =           0.0000              RECHARGE     =           0.0000

               TOTAL OUT =           0.2946                 TOTAL OUT =       2.6778E-02

                IN - OUT =       3.3379E-06                  IN - OUT =      -1.0803E-07

     PERCENT DISCREPANCY =           0.00         PERCENT DISCREPANCY =          -0.00






         TIME SUMMARY AT END OF TIME STEP    1 IN STRESS PERIOD   11
                    SECONDS     MINUTES      HOURS       DAYS        YEARS
                    -----------------------------------------------------------
   TIME STEP LENGTH  86400.      1440.0      24.000      1.0000     2.73785E-03
 STRESS PERIOD TIME  86400.      1440.0      24.000      1.0000     2.73785E-03
         TOTAL TIME 9.50400E+05  15840.      264.00      11.000     3.01164E-02
1
1
                            STRESS PERIOD NO.   12, LENGTH =   1.000000    
                            -----------------------------------------------

                              NUMBER OF TIME STEPS =     1

                               MULTIPLIER FOR DELT =     1.000

                            INITIAL TIME STEP SIZE =   1.000000    

                 RECHARGE =   0.00000    

 CHD NO.   LAYER   ROW   COL    START HEAD        END HEAD         
 ------------------------------------------------------------------
      1      5      1      1       682.6           682.6    
      2      5      1     47       672.5           672.5    


      2 TIME-VARIANT SPECIFIED-HEAD CELLS
 
 SOLVING FOR HEAD 

    ------------------------------------------------
       NWT REQUIRED            1 OUTER ITERATIONS 
       AND A TOTAL OF          1 INNER ITERATIONS.
    ------------------------------------------------

 OUTPUT CONTROL FOR STRESS PERIOD   12   TIME STEP    1
    SAVE HEAD FOR ALL LAYERS
    SAVE BUDGET

 HEAD WILL BE SAVED ON UNIT   51 AT END OF TIME STEP    1, STRESS PERIOD   12
1
  VOLUMETRIC BUDGET FOR ENTIRE MODEL AT END OF TIME STEP    1, STRESS PERIOD  12
  ------------------------------------------------------------------------------

     CUMULATIVE VOLUMES      L**3       RATES FOR THIS TIME STEP      L**3/T
     ------------------                 ------------------------

           IN:                                      IN:
           ---                                      ---
             STORAGE     =       5.6157E-06               STORAGE     =       3.2475E-07
       CONSTANT HEAD     =           0.3213         CONSTANT HEAD     =       2.6778E-02
            RECHARGE     =           0.0000              RECHARGE     =           0.0000

                TOTAL IN =           0.3213                  TOTAL IN =       2.6778E-02

          OUT:                                     OUT:
          ----                                     ----
             STORAGE     =       2.3243E-05               STORAGE     =       1.4755E-06
       CONSTANT HEAD     =           0.3213         CONSTANT HEAD     =       2.6777E-02
            RECHARGE     =           0.0000              RECHARGE     =           0.0000

               TOTAL OUT =           0.3213                 TOTAL OUT =       2.6778E-02

                IN - OUT =       3.2187E-06                  IN - OUT =      -1.0617E-07

     PERCENT DISCREPANCY =           0.00         PERCENT DISCREPANCY =          -0.00






         TIME SUMMARY AT END OF TIME STEP    1 IN STRESS PERIOD   12
                    SECONDS     MINUTES      HOURS       DAYS        YEARS
                    -----------------------------------------------------------
   TIME STEP LENGTH  86400.      1440.0      24.000      1.0000     2.73785E-03
 STRESS PERIOD TIME  86400.      1440.0      24.000      1.0000     2.73785E-03
         TOTAL TIME 1.03680E+06  17280.      288.00      12.000     3.28542E-02
1
1
                            STRESS PERIOD NO.   13, LENGTH =   1.000000    
                            -----------------------------------------------

                              NUMBER OF TIME STEPS =     1

                               MULTIPLIER FOR DELT =     1.000

                            INITIAL TIME STEP SIZE =   1.000000    

                 RECHARGE =   0.00000    

 CHD NO.   LAYER   ROW   COL    START HEAD        END HEAD         
 ------------------------------------------------------------------
      1      5      1      1       682.6           682.6    
      2      5      1     47       672.5           672.5    


      2 TIME-VARIANT SPECIFIED-HEAD CELLS
 
 SOLVING FOR HEAD 

    ------------------------------------------------
       NWT REQUIRED            1 OUTER ITERATIONS 
       AND A TOTAL OF          1 INNER ITERATIONS.
    ------------------------------------------------

 OUTPUT CONTROL FOR STRESS PERIOD   13   TIME STEP    1
    SAVE HEAD FOR ALL LAYERS
    SAVE BUDGET

 HEAD WILL BE SAVED ON UNIT   51 AT END OF TIME STEP    1, STRESS PERIOD   13
1
  VOLUMETRIC BUDGET FOR ENTIRE MODEL AT END OF TIME STEP    1, STRESS PERIOD  13
  ------------------------------------------------------------------------------

     CUMULATIVE VOLUMES      L**3       RATES FOR THIS TIME STEP      L**3/T
     ------------------                 ------------------------

           IN:                                      IN:
           ---                                      ---
             STORAGE     =       5.9148E-06               STORAGE     =       2.9916E-07
       CONSTANT HEAD     =           0.3481         CONSTANT HEAD     =       2.6778E-02
            RECHARGE     =           0.0000              RECHARGE     =           0.0000

                TOTAL IN =           0.3481                  TOTAL IN =       2.6778E-02

          OUT:                                     OUT:
          ----                                     ----
             STORAGE     =       2.4685E-05               STORAGE     =       1.4423E-06
       CONSTANT HEAD     =           0.3481         CONSTANT HEAD     =       2.6777E-02
            RECHARGE     =           0.0000              RECHARGE     =           0.0000

               TOTAL OUT =           0.3481                 TOTAL OUT =       2.6778E-02

                IN - OUT =       3.1292E-06                  IN - OUT =      -1.0245E-07

     PERCENT DISCREPANCY =           0.00         PERCENT DISCREPANCY =          -0.00






         TIME SUMMARY AT END OF TIME STEP    1 IN STRESS PERIOD   13
                    SECONDS     MINUTES      HOURS       DAYS        YEARS
                    -----------------------------------------------------------
   TIME STEP LENGTH  86400.      1440.0      24.000      1.0000     2.73785E-03
 STRESS PERIOD TIME  86400.      1440.0      24.000      1.0000     2.73785E-03
         TOTAL TIME 1.12320E+06  18720.      312.00      13.000     3.55921E-02
1
1
                            STRESS PERIOD NO.   14, LENGTH =   1.000000    
                            -----------------------------------------------

                              NUMBER OF TIME STEPS =     1

                               MULTIPLIER FOR DELT =     1.000

                            INITIAL TIME STEP SIZE =   1.000000    

                 RECHARGE =   0.00000    

 CHD NO.   LAYER   ROW   COL    START HEAD        END HEAD         
 ------------------------------------------------------------------
      1      5      1      1       682.6           682.6    
      2      5      1     47       672.5           672.5    


      2 TIME-VARIANT SPECIFIED-HEAD CELLS
 
 SOLVING FOR HEAD 

    ------------------------------------------------
       NWT REQUIRED            1 OUTER ITERATIONS 
       AND A TOTAL OF          1 INNER ITERATIONS.
    ------------------------------------------------

 OUTPUT CONTROL FOR STRESS PERIOD   14   TIME STEP    1
    SAVE HEAD FOR ALL LAYERS
    SAVE BUDGET

 HEAD WILL BE SAVED ON UNIT   51 AT END OF TIME STEP    1, STRESS PERIOD   14
1
  VOLUMETRIC BUDGET FOR ENTIRE MODEL AT END OF TIME STEP    1, STRESS PERIOD  14
  ------------------------------------------------------------------------------

     CUMULATIVE VOLUMES      L**3       RATES FOR THIS TIME STEP      L**3/T
     ------------------                 ------------------------

           IN:                                      IN:
           ---                                      ---
             STORAGE     =       6.1881E-06               STORAGE     =       2.7328E-07
       CONSTANT HEAD     =           0.3749         CONSTANT HEAD     =       2.6778E-02
            RECHARGE     =           0.0000              RECHARGE     =           0.0000

                TOTAL IN =           0.3749                  TOTAL IN =       2.6778E-02

          OUT:                                     OUT:
          ----                                     ----
             STORAGE     =       2.6099E-05               STORAGE     =       1.4142E-06
       CONSTANT HEAD     =           0.3749         CONSTANT HEAD     =       2.6777E-02
            RECHARGE     =           0.0000              RECHARGE     =           0.0000

               TOTAL OUT =           0.3749                 TOTAL OUT =       2.6778E-02

                IN - OUT =       3.0398E-06                  IN - OUT =      -1.0245E-07

     PERCENT DISCREPANCY =           0.00         PERCENT DISCREPANCY =          -0.00






         TIME SUMMARY AT END OF TIME STEP    1 IN STRESS PERIOD   14
                    SECONDS     MINUTES      HOURS       DAYS        YEARS
                    -----------------------------------------------------------
   TIME STEP LENGTH  86400.      1440.0      24.000      1.0000     2.73785E-03
 STRESS PERIOD TIME  86400.      1440.0      24.000      1.0000     2.73785E-03
         TOTAL TIME 1.20960E+06  20160.      336.00      14.000     3.83299E-02
1
1
                            STRESS PERIOD NO.   15, LENGTH =   1.000000    
                            -----------------------------------------------

                              NUMBER OF TIME STEPS =     1

                               MULTIPLIER FOR DELT =     1.000

                            INITIAL TIME STEP SIZE =   1.000000    

                 RECHARGE =   0.00000    

 CHD NO.   LAYER   ROW   COL    START HEAD        END HEAD         
 ------------------------------------------------------------------
      1      5      1      1       682.6           682.6    
      2      5      1     47       672.5           672.5    


      2 TIME-VARIANT SPECIFIED-HEAD CELLS
 
 SOLVING FOR HEAD 

    ------------------------------------------------
       NWT REQUIRED            1 OUTER ITERATIONS 
       AND A TOTAL OF          1 INNER ITERATIONS.
    ------------------------------------------------

 OUTPUT CONTROL FOR STRESS PERIOD   15   TIME STEP    1
    SAVE HEAD FOR ALL LAYERS
    SAVE BUDGET

 HEAD WILL BE SAVED ON UNIT   51 AT END OF TIME STEP    1, STRESS PERIOD   15
1
  VOLUMETRIC BUDGET FOR ENTIRE MODEL AT END OF TIME STEP    1, STRESS PERIOD  15
  ------------------------------------------------------------------------------

     CUMULATIVE VOLUMES      L**3       RATES FOR THIS TIME STEP      L**3/T
     ------------------                 ------------------------

           IN:                                      IN:
           ---                                      ---
             STORAGE     =       6.4339E-06               STORAGE     =       2.4580E-07
       CONSTANT HEAD     =           0.4017         CONSTANT HEAD     =       2.6778E-02
            RECHARGE     =           0.0000              RECHARGE     =           0.0000

                TOTAL IN =           0.4017                  TOTAL IN =       2.6778E-02

          OUT:                                     OUT:
          ----                                     ----
             STORAGE     =       2.7487E-05               STORAGE     =       1.3882E-06
       CONSTANT HEAD     =           0.4017         CONSTANT HEAD     =       2.6777E-02
            RECHARGE     =           0.0000              RECHARGE     =           0.0000

               TOTAL OUT =           0.4017                 TOTAL OUT =       2.6778E-02

                IN - OUT =       2.9206E-06                  IN - OUT =      -1.0245E-07

     PERCENT DISCREPANCY =           0.00         PERCENT DISCREPANCY =          -0.00






         TIME SUMMARY AT END OF TIME STEP    1 IN STRESS PERIOD   15
                    SECONDS     MINUTES      HOURS       DAYS        YEARS
                    -----------------------------------------------------------
   TIME STEP LENGTH  86400.      1440.0      24.000      1.0000     2.73785E-03
 STRESS PERIOD TIME  86400.      1440.0      24.000      1.0000     2.73785E-03
         TOTAL TIME 1.29600E+06  21600.      360.00      15.000     4.10678E-02
1
1
                            STRESS PERIOD NO.   16, LENGTH =   1.000000    
                            -----------------------------------------------

                              NUMBER OF TIME STEPS =     1

                               MULTIPLIER FOR DELT =     1.000

                            INITIAL TIME STEP SIZE =   1.000000    

                 RECHARGE =   0.00000    

 CHD NO.   LAYER   ROW   COL    START HEAD        END HEAD         
 ------------------------------------------------------------------
      1      5      1      1       682.6           682.6    
      2      5      1     47       672.5           672.5    


      2 TIME-VARIANT SPECIFIED-HEAD CELLS
 
 SOLVING FOR HEAD 

    ------------------------------------------------
       NWT REQUIRED            1 OUTER ITERATIONS 
       AND A TOTAL OF          1 INNER ITERATIONS.
    ------------------------------------------------

 OUTPUT CONTROL FOR STRESS PERIOD   16   TIME STEP    1
    SAVE HEAD FOR ALL LAYERS
    SAVE BUDGET

 HEAD WILL BE SAVED ON UNIT   51 AT END OF TIME STEP    1, STRESS PERIOD   16
1
  VOLUMETRIC BUDGET FOR ENTIRE MODEL AT END OF TIME STEP    1, STRESS PERIOD  16
  ------------------------------------------------------------------------------

     CUMULATIVE VOLUMES      L**3       RATES FOR THIS TIME STEP      L**3/T
     ------------------                 ------------------------

           IN:                                      IN:
           ---                                      ---
             STORAGE     =       6.6530E-06               STORAGE     =       2.1909E-07
       CONSTANT HEAD     =           0.4285         CONSTANT HEAD     =       2.6778E-02
            RECHARGE     =           0.0000              RECHARGE     =           0.0000

                TOTAL IN =           0.4285                  TOTAL IN =       2.6778E-02

          OUT:                                     OUT:
          ----                                     ----
             STORAGE     =       2.8853E-05               STORAGE     =       1.3655E-06
       CONSTANT HEAD     =           0.4284         CONSTANT HEAD     =       2.6777E-02
            RECHARGE     =           0.0000              RECHARGE     =           0.0000

               TOTAL OUT =           0.4285                 TOTAL OUT =       2.6778E-02

                IN - OUT =       2.8014E-06                  IN - OUT =      -1.0245E-07

     PERCENT DISCREPANCY =           0.00         PERCENT DISCREPANCY =          -0.00






         TIME SUMMARY AT END OF TIME STEP    1 IN STRESS PERIOD   16
                    SECONDS     MINUTES      HOURS       DAYS        YEARS
                    -----------------------------------------------------------
   TIME STEP LENGTH  86400.      1440.0      24.000      1.0000     2.73785E-03
 STRESS PERIOD TIME  86400.      1440.0      24.000      1.0000     2.73785E-03
         TOTAL TIME 1.38240E+06  23040.      384.00      16.000     4.38056E-02
1
1
                            STRESS PERIOD NO.   17, LENGTH =   1.000000    
                            -----------------------------------------------

                              NUMBER OF TIME STEPS =     1

                               MULTIPLIER FOR DELT =     1.000

                            INITIAL TIME STEP SIZE =   1.000000    

                 RECHARGE =  2.200000E-03

 CHD NO.   LAYER   ROW   COL    START HEAD        END HEAD         
 ------------------------------------------------------------------
      1      5      1      1       682.6           682.6    
      2      5      1     47       672.5           672.5    


      2 TIME-VARIANT SPECIFIED-HEAD CELLS
 
 SOLVING FOR HEAD 

    ------------------------------------------------
       NWT REQUIRED            3 OUTER ITERATIONS 
       AND A TOTAL OF          3 INNER ITERATIONS.
    ------------------------------------------------

 OUTPUT CONTROL FOR STRESS PERIOD   17   TIME STEP    1
    SAVE HEAD FOR ALL LAYERS
    SAVE BUDGET

 HEAD WILL BE SAVED ON UNIT   51 AT END OF TIME STEP    1, STRESS PERIOD   17
1
  VOLUMETRIC BUDGET FOR ENTIRE MODEL AT END OF TIME STEP    1, STRESS PERIOD  17
  ------------------------------------------------------------------------------

     CUMULATIVE VOLUMES      L**3       RATES FOR THIS TIME STEP      L**3/T
     ------------------                 ------------------------

           IN:                                      IN:
           ---                                      ---
             STORAGE     =       6.6530E-06               STORAGE     =           0.0000
       CONSTANT HEAD     =           0.4536         CONSTANT HEAD     =       2.5145E-02
            RECHARGE     =           0.1241              RECHARGE     =           0.1241

                TOTAL IN =           0.5777                  TOTAL IN =           0.1492

          OUT:                                     OUT:
          ----                                     ----
             STORAGE     =           0.1148               STORAGE     =           0.1147
       CONSTANT HEAD     =           0.4629         CONSTANT HEAD     =       3.4520E-02
            RECHARGE     =           0.0000              RECHARGE     =           0.0000

               TOTAL OUT =           0.5777                 TOTAL OUT =           0.1493

                IN - OUT =      -3.0756E-05                  IN - OUT =      -3.3557E-05

     PERCENT DISCREPANCY =          -0.01         PERCENT DISCREPANCY =          -0.02






         TIME SUMMARY AT END OF TIME STEP    1 IN STRESS PERIOD   17
                    SECONDS     MINUTES      HOURS       DAYS        YEARS
                    -----------------------------------------------------------
   TIME STEP LENGTH  86400.      1440.0      24.000      1.0000     2.73785E-03
 STRESS PERIOD TIME  86400.      1440.0      24.000      1.0000     2.73785E-03
         TOTAL TIME 1.46880E+06  24480.      408.00      17.000     4.65435E-02
1
1
                            STRESS PERIOD NO.   18, LENGTH =   1.000000    
                            -----------------------------------------------

                              NUMBER OF TIME STEPS =     1

                               MULTIPLIER FOR DELT =     1.000

                            INITIAL TIME STEP SIZE =   1.000000    

                 RECHARGE =   0.00000    

 CHD NO.   LAYER   ROW   COL    START HEAD        END HEAD         
 ------------------------------------------------------------------
      1      5      1      1       682.6           682.6    
      2      5      1     47       672.5           672.5    


      2 TIME-VARIANT SPECIFIED-HEAD CELLS
 
 SOLVING FOR HEAD 

    ------------------------------------------------
       NWT REQUIRED            3 OUTER ITERATIONS 
       AND A TOTAL OF          3 INNER ITERATIONS.
    ------------------------------------------------

 OUTPUT CONTROL FOR STRESS PERIOD   18   TIME STEP    1
    SAVE HEAD FOR ALL LAYERS
    SAVE BUDGET

 HEAD WILL BE SAVED ON UNIT   51 AT END OF TIME STEP    1, STRESS PERIOD   18
1
  VOLUMETRIC BUDGET FOR ENTIRE MODEL AT END OF TIME STEP    1, STRESS PERIOD  18
  ------------------------------------------------------------------------------

     CUMULATIVE VOLUMES      L**3       RATES FOR THIS TIME STEP      L**3/T
     ------------------                 ------------------------

           IN:                                      IN:
           ---                                      ---
             STORAGE     =       3.5182E-03               STORAGE     =       3.5116E-03
       CONSTANT HEAD     =           0.4793         CONSTANT HEAD     =       2.5710E-02
            RECHARGE     =           0.1241              RECHARGE     =           0.0000

                TOTAL IN =           0.6069                  TOTAL IN =       2.9221E-02

          OUT:                                     OUT:
          ----                                     ----
             STORAGE     =           0.1152               STORAGE     =       4.4933E-04
       CONSTANT HEAD     =           0.4917         CONSTANT HEAD     =       2.8767E-02
            RECHARGE     =           0.0000              RECHARGE     =           0.0000

               TOTAL OUT =           0.6069                 TOTAL OUT =       2.9216E-02

                IN - OUT =      -2.5749E-05                  IN - OUT =       5.0142E-06

     PERCENT DISCREPANCY =          -0.00         PERCENT DISCREPANCY =           0.02






         TIME SUMMARY AT END OF TIME STEP    1 IN STRESS PERIOD   18
                    SECONDS     MINUTES      HOURS       DAYS        YEARS
                    -----------------------------------------------------------
   TIME STEP LENGTH  86400.      1440.0      24.000      1.0000     2.73785E-03
 STRESS PERIOD TIME  86400.      1440.0      24.000      1.0000     2.73785E-03
         TOTAL TIME 1.55520E+06  25920.      432.00      18.000     4.92813E-02
1
1
                            STRESS PERIOD NO.   19, LENGTH =   1.000000    
                            -----------------------------------------------

                              NUMBER OF TIME STEPS =     1

                               MULTIPLIER FOR DELT =     1.000

                            INITIAL TIME STEP SIZE =   1.000000    

                 RECHARGE =  7.800000E-03

 CHD NO.   LAYER   ROW   COL    START HEAD        END HEAD         
 ------------------------------------------------------------------
      1      5      1      1       682.6           682.6    
      2      5      1     47       672.5           672.5    


      2 TIME-VARIANT SPECIFIED-HEAD CELLS
 
 SOLVING FOR HEAD 

    ------------------------------------------------
       NWT REQUIRED            4 OUTER ITERATIONS 
       AND A TOTAL OF          4 INNER ITERATIONS.
    ------------------------------------------------

 OUTPUT CONTROL FOR STRESS PERIOD   19   TIME STEP    1
    SAVE HEAD FOR ALL LAYERS
    SAVE BUDGET

 HEAD WILL BE SAVED ON UNIT   51 AT END OF TIME STEP    1, STRESS PERIOD   19
1
  VOLUMETRIC BUDGET FOR ENTIRE MODEL AT END OF TIME STEP    1, STRESS PERIOD  19
  ------------------------------------------------------------------------------

     CUMULATIVE VOLUMES      L**3       RATES FOR THIS TIME STEP      L**3/T
     ------------------                 ------------------------

           IN:                                      IN:
           ---                                      ---
             STORAGE     =       3.5182E-03               STORAGE     =           0.0000
       CONSTANT HEAD     =           0.4994         CONSTANT HEAD     =       2.0140E-02
            RECHARGE     =           0.5640              RECHARGE     =           0.4399

                TOTAL IN =           1.0670                  TOTAL IN =           0.4601

          OUT:                                     OUT:
          ----                                     ----
             STORAGE     =           0.5189               STORAGE     =           0.4037
       CONSTANT HEAD     =           0.5481         CONSTANT HEAD     =       5.6399E-02
            RECHARGE     =           0.0000              RECHARGE     =           0.0000

               TOTAL OUT =           1.0670                 TOTAL OUT =           0.4601

                IN - OUT =      -3.2187E-05                  IN - OUT =      -6.3181E-06

     PERCENT DISCREPANCY =          -0.00         PERCENT DISCREPANCY =          -0.00






         TIME SUMMARY AT END OF TIME STEP    1 IN STRESS PERIOD   19
                    SECONDS     MINUTES      HOURS       DAYS        YEARS
                    -----------------------------------------------------------
   TIME STEP LENGTH  86400.      1440.0      24.000      1.0000     2.73785E-03
 STRESS PERIOD TIME  86400.      1440.0      24.000      1.0000     2.73785E-03
         TOTAL TIME 1.64160E+06  27360.      456.00      19.000     5.20192E-02
1
1
                            STRESS PERIOD NO.   20, LENGTH =   1.000000    
                            -----------------------------------------------

                              NUMBER OF TIME STEPS =     1

                               MULTIPLIER FOR DELT =     1.000

                            INITIAL TIME STEP SIZE =   1.000000    

                 RECHARGE =   0.00000    

 CHD NO.   LAYER   ROW   COL    START HEAD        END HEAD         
 ------------------------------------------------------------------
      1      5      1      1       682.6           682.6    
      2      5      1     47       672.5           672.5    


      2 TIME-VARIANT SPECIFIED-HEAD CELLS
 
 SOLVING FOR HEAD 

    ------------------------------------------------
       NWT REQUIRED            4 OUTER ITERATIONS 
       AND A TOTAL OF          4 INNER ITERATIONS.
    ------------------------------------------------

 OUTPUT CONTROL FOR STRESS PERIOD   20   TIME STEP    1
    SAVE HEAD FOR ALL LAYERS
    SAVE BUDGET

 HEAD WILL BE SAVED ON UNIT   51 AT END OF TIME STEP    1, STRESS PERIOD   20
1
  VOLUMETRIC BUDGET FOR ENTIRE MODEL AT END OF TIME STEP    1, STRESS PERIOD  20
  ------------------------------------------------------------------------------

     CUMULATIVE VOLUMES      L**3       RATES FOR THIS TIME STEP      L**3/T
[...]
  ------------------------------------------------------------------------------

     CUMULATIVE VOLUMES      L**3       RATES FOR THIS TIME STEP      L**3/T
     ------------------                 ------------------------

           IN:                                      IN:
           ---                                      ---
             STORAGE     =           7.8524               STORAGE     =           0.0000
       CONSTANT HEAD     =           3.1670         CONSTANT HEAD     =       1.1302E-02
            RECHARGE     =          17.0779              RECHARGE     =           0.5302

                TOTAL IN =          28.0973                  TOTAL IN =           0.5415

          OUT:                                     OUT:
          ----                                     ----
             STORAGE     =          12.5681               STORAGE     =           0.3522
       CONSTANT HEAD     =          15.5176         CONSTANT HEAD     =           0.1893
            RECHARGE     =           0.0000              RECHARGE     =           0.0000

               TOTAL OUT =          28.0857                 TOTAL OUT =           0.5415

                IN - OUT =       1.1612E-02                  IN - OUT =      -5.4240E-06

     PERCENT DISCREPANCY =           0.04         PERCENT DISCREPANCY =          -0.00






         TIME SUMMARY AT END OF TIME STEP    1 IN STRESS PERIOD  169
                    SECONDS     MINUTES      HOURS       DAYS        YEARS
                    -----------------------------------------------------------
   TIME STEP LENGTH  86400.      1440.0      24.000      1.0000     2.73785E-03
 STRESS PERIOD TIME  86400.      1440.0      24.000      1.0000     2.73785E-03
         TOTAL TIME 1.46016E+07 2.43360E+05  4056.0      169.00     0.46270    
1
1
                            STRESS PERIOD NO.  170, LENGTH =   1.000000    
                            -----------------------------------------------

                              NUMBER OF TIME STEPS =     1

                               MULTIPLIER FOR DELT =     1.000

                            INITIAL TIME STEP SIZE =   1.000000    

                 RECHARGE =   0.00000    

 CHD NO.   LAYER   ROW   COL    START HEAD        END HEAD         
 ------------------------------------------------------------------
      1      5      1      1       682.6           682.6    
      2      5      1     47       672.5           672.5    


      2 TIME-VARIANT SPECIFIED-HEAD CELLS
 
 SOLVING FOR HEAD 

    ------------------------------------------------
       NWT REQUIRED            4 OUTER ITERATIONS 
       AND A TOTAL OF          4 INNER ITERATIONS.
    ------------------------------------------------

 OUTPUT CONTROL FOR STRESS PERIOD  170   TIME STEP    1
    SAVE HEAD FOR ALL LAYERS
    SAVE BUDGET

 HEAD WILL BE SAVED ON UNIT   51 AT END OF TIME STEP    1, STRESS PERIOD  170
1
  VOLUMETRIC BUDGET FOR ENTIRE MODEL AT END OF TIME STEP    1, STRESS PERIOD 170
  ------------------------------------------------------------------------------

     CUMULATIVE VOLUMES      L**3       RATES FOR THIS TIME STEP      L**3/T
     ------------------                 ------------------------

           IN:                                      IN:
           ---                                      ---
             STORAGE     =           7.9967               STORAGE     =           0.1443
       CONSTANT HEAD     =           3.1815         CONSTANT HEAD     =       1.4525E-02
            RECHARGE     =          17.0779              RECHARGE     =           0.0000

                TOTAL IN =          28.2561                  TOTAL IN =           0.1588

          OUT:                                     OUT:
          ----                                     ----
             STORAGE     =          12.5681               STORAGE     =           0.0000
       CONSTANT HEAD     =          15.6764         CONSTANT HEAD     =           0.1588
            RECHARGE     =           0.0000              RECHARGE     =           0.0000

               TOTAL OUT =          28.2445                 TOTAL OUT =           0.1588

                IN - OUT =       1.1616E-02                  IN - OUT =       3.0398E-06

     PERCENT DISCREPANCY =           0.04         PERCENT DISCREPANCY =           0.00






         TIME SUMMARY AT END OF TIME STEP    1 IN STRESS PERIOD  170
                    SECONDS     MINUTES      HOURS       DAYS        YEARS
                    -----------------------------------------------------------
   TIME STEP LENGTH  86400.      1440.0      24.000      1.0000     2.73785E-03
 STRESS PERIOD TIME  86400.      1440.0      24.000      1.0000     2.73785E-03
         TOTAL TIME 1.46880E+07 2.44800E+05  4080.0      170.00     0.46543    
1
1
                            STRESS PERIOD NO.  171, LENGTH =   1.000000    
                            -----------------------------------------------

                              NUMBER OF TIME STEPS =     1

                               MULTIPLIER FOR DELT =     1.000

                            INITIAL TIME STEP SIZE =   1.000000    

                 RECHARGE =   0.00000    

 CHD NO.   LAYER   ROW   COL    START HEAD        END HEAD         
 ------------------------------------------------------------------
      1      5      1      1       682.6           682.6    
      2      5      1     47       672.5           672.5    


      2 TIME-VARIANT SPECIFIED-HEAD CELLS
 
 SOLVING FOR HEAD 

    ------------------------------------------------
       NWT REQUIRED            3 OUTER ITERATIONS 
       AND A TOTAL OF          3 INNER ITERATIONS.
    ------------------------------------------------

 OUTPUT CONTROL FOR STRESS PERIOD  171   TIME STEP    1
    SAVE HEAD FOR ALL LAYERS
    SAVE BUDGET

 HEAD WILL BE SAVED ON UNIT   51 AT END OF TIME STEP    1, STRESS PERIOD  171
1
  VOLUMETRIC BUDGET FOR ENTIRE MODEL AT END OF TIME STEP    1, STRESS PERIOD 171
  ------------------------------------------------------------------------------

     CUMULATIVE VOLUMES      L**3       RATES FOR THIS TIME STEP      L**3/T
     ------------------                 ------------------------

           IN:                                      IN:
           ---                                      ---
             STORAGE     =           8.1343               STORAGE     =           0.1376
       CONSTANT HEAD     =           3.1979         CONSTANT HEAD     =       1.6367E-02
            RECHARGE     =          17.0779              RECHARGE     =           0.0000

                TOTAL IN =          28.4101                  TOTAL IN =           0.1540

          OUT:                                     OUT:
          ----                                     ----
             STORAGE     =          12.5681               STORAGE     =       1.2140E-25
       CONSTANT HEAD     =          15.8304         CONSTANT HEAD     =           0.1540
            RECHARGE     =           0.0000              RECHARGE     =           0.0000

               TOTAL OUT =          28.3985                 TOTAL OUT =           0.1540

                IN - OUT =       1.1654E-02                  IN - OUT =       3.6314E-05

     PERCENT DISCREPANCY =           0.04         PERCENT DISCREPANCY =           0.02






         TIME SUMMARY AT END OF TIME STEP    1 IN STRESS PERIOD  171
                    SECONDS     MINUTES      HOURS       DAYS        YEARS
                    -----------------------------------------------------------
   TIME STEP LENGTH  86400.      1440.0      24.000      1.0000     2.73785E-03
 STRESS PERIOD TIME  86400.      1440.0      24.000      1.0000     2.73785E-03
         TOTAL TIME 1.47744E+07 2.46240E+05  4104.0      171.00     0.46817    
1
1
                            STRESS PERIOD NO.  172, LENGTH =   1.000000    
                            -----------------------------------------------

                              NUMBER OF TIME STEPS =     1

                               MULTIPLIER FOR DELT =     1.000

                            INITIAL TIME STEP SIZE =   1.000000    

                 RECHARGE =   0.00000    

 CHD NO.   LAYER   ROW   COL    START HEAD        END HEAD         
 ------------------------------------------------------------------
      1      5      1      1       682.6           682.6    
      2      5      1     47       672.5           672.5    


      2 TIME-VARIANT SPECIFIED-HEAD CELLS
 
 SOLVING FOR HEAD 

    ------------------------------------------------
       NWT REQUIRED            3 OUTER ITERATIONS 
       AND A TOTAL OF          3 INNER ITERATIONS.
    ------------------------------------------------

 OUTPUT CONTROL FOR STRESS PERIOD  172   TIME STEP    1
    SAVE HEAD FOR ALL LAYERS
    SAVE BUDGET

 HEAD WILL BE SAVED ON UNIT   51 AT END OF TIME STEP    1, STRESS PERIOD  172
1
  VOLUMETRIC BUDGET FOR ENTIRE MODEL AT END OF TIME STEP    1, STRESS PERIOD 172
  ------------------------------------------------------------------------------

     CUMULATIVE VOLUMES      L**3       RATES FOR THIS TIME STEP      L**3/T
     ------------------                 ------------------------

           IN:                                      IN:
           ---                                      ---
             STORAGE     =           8.2670               STORAGE     =           0.1327
       CONSTANT HEAD     =           3.2155         CONSTANT HEAD     =       1.7614E-02
            RECHARGE     =          17.0779              RECHARGE     =           0.0000

                TOTAL IN =          28.5604                  TOTAL IN =           0.1503

          OUT:                                     OUT:
          ----                                     ----
             STORAGE     =          12.5681               STORAGE     =       9.4823E-26
       CONSTANT HEAD     =          15.9806         CONSTANT HEAD     =           0.1502
            RECHARGE     =           0.0000              RECHARGE     =           0.0000

               TOTAL OUT =          28.5487                 TOTAL OUT =           0.1502

                IN - OUT =       1.1686E-02                  IN - OUT =       3.4675E-05

     PERCENT DISCREPANCY =           0.04         PERCENT DISCREPANCY =           0.02






         TIME SUMMARY AT END OF TIME STEP    1 IN STRESS PERIOD  172
                    SECONDS     MINUTES      HOURS       DAYS        YEARS
                    -----------------------------------------------------------
   TIME STEP LENGTH  86400.      1440.0      24.000      1.0000     2.73785E-03
 STRESS PERIOD TIME  86400.      1440.0      24.000      1.0000     2.73785E-03
         TOTAL TIME 1.48608E+07 2.47680E+05  4128.0      172.00     0.47091    
1
1
                            STRESS PERIOD NO.  173, LENGTH =   1.000000    
                            -----------------------------------------------

                              NUMBER OF TIME STEPS =     1

                               MULTIPLIER FOR DELT =     1.000

                            INITIAL TIME STEP SIZE =   1.000000    

                 RECHARGE =   0.00000    

 CHD NO.   LAYER   ROW   COL    START HEAD        END HEAD         
 ------------------------------------------------------------------
      1      5      1      1       682.6           682.6    
      2      5      1     47       672.5           672.5    


      2 TIME-VARIANT SPECIFIED-HEAD CELLS
 
 SOLVING FOR HEAD 

    ------------------------------------------------
       NWT REQUIRED            3 OUTER ITERATIONS 
       AND A TOTAL OF          3 INNER ITERATIONS.
    ------------------------------------------------

 OUTPUT CONTROL FOR STRESS PERIOD  173   TIME STEP    1
    SAVE HEAD FOR ALL LAYERS
    SAVE BUDGET

 HEAD WILL BE SAVED ON UNIT   51 AT END OF TIME STEP    1, STRESS PERIOD  173
1
  VOLUMETRIC BUDGET FOR ENTIRE MODEL AT END OF TIME STEP    1, STRESS PERIOD 173
  ------------------------------------------------------------------------------

     CUMULATIVE VOLUMES      L**3       RATES FOR THIS TIME STEP      L**3/T
     ------------------                 ------------------------

           IN:                                      IN:
           ---                                      ---
             STORAGE     =           8.3955               STORAGE     =           0.1285
       CONSTANT HEAD     =           3.2340         CONSTANT HEAD     =       1.8555E-02
            RECHARGE     =          17.0779              RECHARGE     =           0.0000

                TOTAL IN =          28.7075                  TOTAL IN =           0.1471

          OUT:                                     OUT:
          ----                                     ----
             STORAGE     =          12.5681               STORAGE     =       8.2921E-26
       CONSTANT HEAD     =          16.1276         CONSTANT HEAD     =           0.1470
            RECHARGE     =           0.0000              RECHARGE     =           0.0000

               TOTAL OUT =          28.6958                 TOTAL OUT =           0.1470

                IN - OUT =       1.1719E-02                  IN - OUT =       3.3438E-05

     PERCENT DISCREPANCY =           0.04         PERCENT DISCREPANCY =           0.02






         TIME SUMMARY AT END OF TIME STEP    1 IN STRESS PERIOD  173
                    SECONDS     MINUTES      HOURS       DAYS        YEARS
                    -----------------------------------------------------------
   TIME STEP LENGTH  86400.      1440.0      24.000      1.0000     2.73785E-03
 STRESS PERIOD TIME  86400.      1440.0      24.000      1.0000     2.73785E-03
         TOTAL TIME 1.49472E+07 2.49120E+05  4152.0      173.00     0.47365    
1
1
                            STRESS PERIOD NO.  174, LENGTH =   1.000000    
                            -----------------------------------------------

                              NUMBER OF TIME STEPS =     1

                               MULTIPLIER FOR DELT =     1.000

                            INITIAL TIME STEP SIZE =   1.000000    

                 RECHARGE =   0.00000    

 CHD NO.   LAYER   ROW   COL    START HEAD        END HEAD         
 ------------------------------------------------------------------
      1      5      1      1       682.6           682.6    
      2      5      1     47       672.5           672.5    


      2 TIME-VARIANT SPECIFIED-HEAD CELLS
 
 SOLVING FOR HEAD 

    ------------------------------------------------
       NWT REQUIRED            3 OUTER ITERATIONS 
       AND A TOTAL OF          3 INNER ITERATIONS.
    ------------------------------------------------

 OUTPUT CONTROL FOR STRESS PERIOD  174   TIME STEP    1
    SAVE HEAD FOR ALL LAYERS
    SAVE BUDGET

 HEAD WILL BE SAVED ON UNIT   51 AT END OF TIME STEP    1, STRESS PERIOD  174
1
  VOLUMETRIC BUDGET FOR ENTIRE MODEL AT END OF TIME STEP    1, STRESS PERIOD 174
  ------------------------------------------------------------------------------

     CUMULATIVE VOLUMES      L**3       RATES FOR THIS TIME STEP      L**3/T
     ------------------                 ------------------------

           IN:                                      IN:
           ---                                      ---
             STORAGE     =           8.5203               STORAGE     =           0.1248
       CONSTANT HEAD     =           3.2534         CONSTANT HEAD     =       1.9315E-02
            RECHARGE     =          17.0779              RECHARGE     =           0.0000

                TOTAL IN =          28.8516                  TOTAL IN =           0.1441

          OUT:                                     OUT:
          ----                                     ----
             STORAGE     =          12.5681               STORAGE     =       7.5893E-26
       CONSTANT HEAD     =          16.2717         CONSTANT HEAD     =           0.1441
            RECHARGE     =           0.0000              RECHARGE     =           0.0000

               TOTAL OUT =          28.8398                 TOTAL OUT =           0.1441

                IN - OUT =       1.1751E-02                  IN - OUT =       3.2380E-05

     PERCENT DISCREPANCY =           0.04         PERCENT DISCREPANCY =           0.02






         TIME SUMMARY AT END OF TIME STEP    1 IN STRESS PERIOD  174
                    SECONDS     MINUTES      HOURS       DAYS        YEARS
                    -----------------------------------------------------------
   TIME STEP LENGTH  86400.      1440.0      24.000      1.0000     2.73785E-03
 STRESS PERIOD TIME  86400.      1440.0      24.000      1.0000     2.73785E-03
         TOTAL TIME 1.50336E+07 2.50560E+05  4176.0      174.00     0.47639    
1
1
                            STRESS PERIOD NO.  175, LENGTH =   1.000000    
                            -----------------------------------------------

                              NUMBER OF TIME STEPS =     1

                               MULTIPLIER FOR DELT =     1.000

                            INITIAL TIME STEP SIZE =   1.000000    

                 RECHARGE =   0.00000    

 CHD NO.   LAYER   ROW   COL    START HEAD        END HEAD         
 ------------------------------------------------------------------
      1      5      1      1       682.6           682.6    
      2      5      1     47       672.5           672.5    


      2 TIME-VARIANT SPECIFIED-HEAD CELLS
 
 SOLVING FOR HEAD 

    ------------------------------------------------
       NWT REQUIRED            3 OUTER ITERATIONS 
       AND A TOTAL OF          3 INNER ITERATIONS.
    ------------------------------------------------

 OUTPUT CONTROL FOR STRESS PERIOD  175   TIME STEP    1
    SAVE HEAD FOR ALL LAYERS
    SAVE BUDGET

 HEAD WILL BE SAVED ON UNIT   51 AT END OF TIME STEP    1, STRESS PERIOD  175
1
  VOLUMETRIC BUDGET FOR ENTIRE MODEL AT END OF TIME STEP    1, STRESS PERIOD 175
  ------------------------------------------------------------------------------

     CUMULATIVE VOLUMES      L**3       RATES FOR THIS TIME STEP      L**3/T
     ------------------                 ------------------------

           IN:                                      IN:
           ---                                      ---
             STORAGE     =           8.6417               STORAGE     =           0.1214
       CONSTANT HEAD     =           3.2733         CONSTANT HEAD     =       1.9955E-02
            RECHARGE     =          17.0779              RECHARGE     =           0.0000

                TOTAL IN =          28.9930                  TOTAL IN =           0.1414

          OUT:                                     OUT:
          ----                                     ----
             STORAGE     =          12.5681               STORAGE     =       7.1257E-26
       CONSTANT HEAD     =          16.4131         CONSTANT HEAD     =           0.1413
            RECHARGE     =           0.0000              RECHARGE     =           0.0000

               TOTAL OUT =          28.9812                 TOTAL OUT =           0.1413

                IN - OUT =       1.1784E-02                  IN - OUT =       3.1471E-05

     PERCENT DISCREPANCY =           0.04         PERCENT DISCREPANCY =           0.02






         TIME SUMMARY AT END OF TIME STEP    1 IN STRESS PERIOD  175
                    SECONDS     MINUTES      HOURS       DAYS        YEARS
                    -----------------------------------------------------------
   TIME STEP LENGTH  86400.      1440.0      24.000      1.0000     2.73785E-03
 STRESS PERIOD TIME  86400.      1440.0      24.000      1.0000     2.73785E-03
         TOTAL TIME 1.51200E+07 2.52000E+05  4200.0      175.00     0.47912    
1

 Run end date and time (yyyy/mm/dd hh:mm:ss): 2026/04/27  1:28:32
 Elapsed run time:  0.124 Seconds

