                                  MODFLOW-NWT-SWR1 
      U.S. GEOLOGICAL SURVEY MODULAR FINITE-DIFFERENCE GROUNDWATER-FLOW MODEL
                            VERSION 1.3.0 07/01/2022
                    BASED ON MODFLOW-2005 VERSION 1.12.00 02/03/2017

 LIST FILE: hydro_transient.list
                         UNIT    2

 OPENING hydro_transient.dis
 FILE TYPE:DIS   UNIT   11   STATUS:OLD    
 FORMAT:FORMATTED              ACCESS:SEQUENTIAL          

 OPENING hydro_transient.bas
 FILE TYPE:BAS6   UNIT   13   STATUS:OLD    
 FORMAT:FORMATTED              ACCESS:SEQUENTIAL          

 OPENING hydro_transient.upw
 FILE TYPE:UPW   UNIT   31   STATUS:OLD    
 FORMAT:FORMATTED              ACCESS:SEQUENTIAL          

 OPENING hydro_transient.chd
 FILE TYPE:CHD   UNIT   24   STATUS:OLD    
 FORMAT:FORMATTED              ACCESS:SEQUENTIAL          

 OPENING hydro_transient.rch
 FILE TYPE:RCH   UNIT   19   STATUS:OLD    
 FORMAT:FORMATTED              ACCESS:SEQUENTIAL          

 OPENING hydro_transient.nwt
 FILE TYPE:NWT   UNIT   32   STATUS:OLD    
 FORMAT:FORMATTED              ACCESS:SEQUENTIAL          

 OPENING hydro_transient.oc
 FILE TYPE:OC   UNIT   14   STATUS:OLD    
 FORMAT:FORMATTED              ACCESS:SEQUENTIAL          

 OPENING hydro_transient.hds
 FILE TYPE:DATA(BINARY)   UNIT   51   STATUS:REPLACE
 FORMAT:BINARY                 ACCESS:SEQUENTIAL          

 BAS -- BASIC PACKAGE, VERSION 1.3.0, 7/01/2022 INPUT READ FROM UNIT   13
 
 MODFLOW was compiled using mixed precision
 Precision of REAL variables:           6
 Precision of DOUBLE PRECISION variables:          15

 DISCRETIZATION INPUT DATA READ FROM UNIT   11
 # DIS package for MODFLOW-NWT generated by Flopy 3.10.0
    5 LAYERS         1 ROWS        47 COLUMNS
    3 STRESS PERIOD(S) IN SIMULATION
 MODEL TIME UNIT IS DAYS
 MODEL LENGTH UNIT IS METERS
  Confining bed flag for each layer:
   0   0   0   0   0

                     DELR =   1.20000    

                     DELC =   1.00000    



           TOP ELEVATION OF LAYER 1
 READING ON UNIT   11 WITH FORMAT: (47E15.6)           



             MODEL LAYER BOTTOM EL. FOR LAYER   1
 READING ON UNIT   11 WITH FORMAT: (47E15.6)           



             MODEL LAYER BOTTOM EL. FOR LAYER   2
 READING ON UNIT   11 WITH FORMAT: (47E15.6)           



             MODEL LAYER BOTTOM EL. FOR LAYER   3
 READING ON UNIT   11 WITH FORMAT: (47E15.6)           



             MODEL LAYER BOTTOM EL. FOR LAYER   4
 READING ON UNIT   11 WITH FORMAT: (47E15.6)           



             MODEL LAYER BOTTOM EL. FOR LAYER   5
 READING ON UNIT   11 WITH FORMAT: (47E15.6)           


 STRESS PERIOD     LENGTH       TIME STEPS     MULTIPLIER FOR DELT    SS FLAG
 ----------------------------------------------------------------------------
        1         1.000000          1                    1.000         SS
        2         5.000000          5                    1.000         TR
        3         10.00000         10                    1.000         TR

 COMBINED STEADY-STATE AND TRANSIENT SIMULATION



 
 # BAS6 package for MODFLOW-NWT generated by Flopy 3.10.0                        
 THE FREE FORMAT OPTION HAS BEEN SELECTED



                     BOUNDARY ARRAY FOR LAYER   1
 READING ON UNIT   13 WITH FORMAT: (47I10)             



                     BOUNDARY ARRAY FOR LAYER   2
 READING ON UNIT   13 WITH FORMAT: (47I10)             



                     BOUNDARY ARRAY FOR LAYER   3
 READING ON UNIT   13 WITH FORMAT: (47I10)             



                     BOUNDARY ARRAY FOR LAYER   4
 READING ON UNIT   13 WITH FORMAT: (47I10)             



                     BOUNDARY ARRAY FOR LAYER   5
 READING ON UNIT   13 WITH FORMAT: (47I10)             

 AQUIFER HEAD WILL BE SET TO  -999.99     AT ALL NO-FLOW NODES (IBOUND=0).



                       INITIAL HEAD FOR LAYER   1
 READING ON UNIT   13 WITH FORMAT: (47E15.6)           



                       INITIAL HEAD FOR LAYER   2
 READING ON UNIT   13 WITH FORMAT: (47E15.6)           



                       INITIAL HEAD FOR LAYER   3
 READING ON UNIT   13 WITH FORMAT: (47E15.6)           



                       INITIAL HEAD FOR LAYER   4
 READING ON UNIT   13 WITH FORMAT: (47E15.6)           



                       INITIAL HEAD FOR LAYER   5
 READING ON UNIT   13 WITH FORMAT: (47E15.6)           
 # OC package for MODFLOW-NWT generated by Flopy 3.10.0

 OUTPUT CONTROL IS SPECIFIED ONLY AT TIME STEPS FOR WHICH OUTPUT IS DESIRED
 COMPACT CELL-BY-CELL BUDGET FILES WILL BE WRITTEN
 AUXILIARY DATA WILL BE SAVED IN CELL-BY-CELL BUDGET FILES
 HEAD PRINT FORMAT CODE IS   0    DRAWDOWN PRINT FORMAT CODE IS   0
 HEADS WILL BE SAVED ON UNIT   51    DRAWDOWNS WILL BE SAVED ON UNIT    0
 # NWT package for MODFLOW-NWT generated by Flopy 3.10.0

 NWT1 -- Newton Solver, VERSION 1.3.0, 7/01/2022
         INPUT READ FROM UNIT 32

 COMPLEX OPTION:
 DEFAULT SOLVER INPUT VALUES REFLECT STRONGLY NONLINEAR MODEL
 ***GMRES linear solver will be used***
 
   CONVERGENCE CRITERION OF   0.100000E-02 FOR HEAD SOLUTION
   AND A TOLERANCE OF   0.100000E-02 FOR FLOW SOLUTION AND 
   A MAXIMUM OF   500 OUTER ITERATIONS. 


   D-B-D REDUCTION FACTOR OF    0.850000E+00 AND 
   A D-B-D INCREASE FACTOR OF    0.100000E-04 AND 
   A D-B-D RELAXATION OF    0.000000E+00 AND 
   A MOMENTUM FACTOR OF    0.100000E+00 .


   BACKTRACKING IS ACTIVE 
   THE MAXIMUM NUMBER OF BACKTRACKS IS    50 AND 
   THE BACKTRACKING TOLERANCE IS    0.110000E+01 AND
   THE BACKTRACKING REDUCTION FACTOR IS    0.700000E+00

 GMRES -- LINEAR SOLUTION BY GMRES PACKAGE 
     adapted for HYDROTHERM by Kipp and others (2008)
     using software originally developed by Saad (1990) 32
     using algorithms described in Saad (2003)

 UPW1 -- UPSTREAM WEIGHTING FLOW PACKAGE, VERSION 1.3.0, 7/01/2022
         INPUT READ FROM UNIT 31

 # UPW package for MODFLOW-NWT generated by Flopy 3.10.0
 No named parameters

   LAYER FLAGS:
 LAYER       LAYTYP          LAYAVG    CHANI           LAYVKA           LAYWET
 ---------------------------------------------------------------------------
    1             1             0     1.000E+00             0             0
    2             1             0     1.000E+00             0             0
    3             1             0     1.000E+00             0             0
    4             1             0     1.000E+00             0             0
    5             1             0     1.000E+00             0             0

   INTERPRETATION OF LAYER FLAGS:
                        INTERBLOCK     HORIZONTAL    DATA IN
         LAYER TYPE   TRANSMISSIVITY   ANISOTROPY   ARRAY VKA   WETTABILITY
 LAYER   (LAYTYP)        (LAYAVG)      (CHANI)     (LAYVKA)       (LAYWET)
 ---------------------------------------------------------------------------
    1   CONVERTIBLE      HARMONIC     1.000E+00    VERTICAL K  NON-WETTABLE
    2   CONVERTIBLE      HARMONIC     1.000E+00    VERTICAL K  NON-WETTABLE
    3   CONVERTIBLE      HARMONIC     1.000E+00    VERTICAL K  NON-WETTABLE
    4   CONVERTIBLE      HARMONIC     1.000E+00    VERTICAL K  NON-WETTABLE
    5   CONVERTIBLE      HARMONIC     1.000E+00    VERTICAL K  NON-WETTABLE

    HYD. COND. ALONG ROWS =  0.500000     FOR LAYER   1

      VERTICAL HYD. COND. =  5.000000E-02 FOR LAYER   1

         SPECIFIC STORAGE =  1.000000E-05 FOR LAYER   1

           SPECIFIC YIELD =  0.150000     FOR LAYER   1

    HYD. COND. ALONG ROWS =  0.500000     FOR LAYER   2

      VERTICAL HYD. COND. =  5.000000E-02 FOR LAYER   2

         SPECIFIC STORAGE =  1.000000E-05 FOR LAYER   2

           SPECIFIC YIELD =  0.150000     FOR LAYER   2

    HYD. COND. ALONG ROWS =  0.500000     FOR LAYER   3

      VERTICAL HYD. COND. =  5.000000E-02 FOR LAYER   3

         SPECIFIC STORAGE =  1.000000E-05 FOR LAYER   3

           SPECIFIC YIELD =  0.150000     FOR LAYER   3

    HYD. COND. ALONG ROWS =  0.500000     FOR LAYER   4

      VERTICAL HYD. COND. =  5.000000E-02 FOR LAYER   4

         SPECIFIC STORAGE =  1.000000E-05 FOR LAYER   4

           SPECIFIC YIELD =  0.150000     FOR LAYER   4

    HYD. COND. ALONG ROWS =  0.500000     FOR LAYER   5

      VERTICAL HYD. COND. =  5.000000E-02 FOR LAYER   5

         SPECIFIC STORAGE =  1.000000E-05 FOR LAYER   5

           SPECIFIC YIELD =  0.150000     FOR LAYER   5

 RCH -- RECHARGE PACKAGE, VERSION 7, 5/2/2005 INPUT READ FROM UNIT   19
 # RCH package for MODFLOW-NWT generated by Flopy 3.10.0
 No named parameters
 OPTION 3 -- RECHARGE TO HIGHEST ACTIVE NODE IN EACH VERTICAL COLUMN


     0 Recharge parameters

 CHD -- TIME-VARIANT SPECIFIED-HEAD OPTION, VERSION 7, 5/2/2005
 INPUT READ FROM UNIT   24
 # CHD package for MODFLOW-NWT generated by Flopy 3.10.0
 No named parameters
 MAXIMUM OF      2 TIME-VARIANT SPECIFIED-HEAD CELLS AT ONE TIME


     0 TIME-VARIANT SPECIFIED-HEAD PARAMETERS
1
                            STRESS PERIOD NO.    1, LENGTH =   1.000000    
                            -----------------------------------------------

                              NUMBER OF TIME STEPS =     1

                               MULTIPLIER FOR DELT =     1.000

                            INITIAL TIME STEP SIZE =   1.000000    

                 RECHARGE =   0.00000    

 CHD NO.   LAYER   ROW   COL    START HEAD        END HEAD         
 ------------------------------------------------------------------
      1      5      1      1       682.6           682.6    
      2      5      1     47       672.5           672.5    


      2 TIME-VARIANT SPECIFIED-HEAD CELLS
 
 SOLVING FOR HEAD 

    ------------------------------------------------
       NWT REQUIRED            6 OUTER ITERATIONS 
       AND A TOTAL OF          6 INNER ITERATIONS.
    ------------------------------------------------

 OUTPUT CONTROL FOR STRESS PERIOD    1   TIME STEP    1
    SAVE HEAD FOR ALL LAYERS
    SAVE BUDGET

 HEAD WILL BE SAVED ON UNIT   51 AT END OF TIME STEP    1, STRESS PERIOD    1
1
  VOLUMETRIC BUDGET FOR ENTIRE MODEL AT END OF TIME STEP    1, STRESS PERIOD   1
  ------------------------------------------------------------------------------

     CUMULATIVE VOLUMES      L**3       RATES FOR THIS TIME STEP      L**3/T
     ------------------                 ------------------------

           IN:                                      IN:
           ---                                      ---
             STORAGE     =           0.0000               STORAGE     =           0.0000
       CONSTANT HEAD     =       2.6781E-02         CONSTANT HEAD     =       2.6781E-02
            RECHARGE     =           0.0000              RECHARGE     =           0.0000

                TOTAL IN =       2.6781E-02                  TOTAL IN =       2.6781E-02

          OUT:                                     OUT:
          ----                                     ----
             STORAGE     =           0.0000               STORAGE     =           0.0000
       CONSTANT HEAD     =       2.6776E-02         CONSTANT HEAD     =       2.6776E-02
            RECHARGE     =           0.0000              RECHARGE     =           0.0000

               TOTAL OUT =       2.6776E-02                 TOTAL OUT =       2.6776E-02

                IN - OUT =       5.1465E-06                  IN - OUT =       5.1465E-06

     PERCENT DISCREPANCY =           0.02         PERCENT DISCREPANCY =           0.02






         TIME SUMMARY AT END OF TIME STEP    1 IN STRESS PERIOD    1
                    SECONDS     MINUTES      HOURS       DAYS        YEARS
                    -----------------------------------------------------------
   TIME STEP LENGTH  86400.      1440.0      24.000      1.0000     2.73785E-03
 STRESS PERIOD TIME  86400.      1440.0      24.000      1.0000     2.73785E-03
         TOTAL TIME  86400.      1440.0      24.000      1.0000     2.73785E-03
1
1
                            STRESS PERIOD NO.    2, LENGTH =   5.000000    
                            -----------------------------------------------

                              NUMBER OF TIME STEPS =     5

                               MULTIPLIER FOR DELT =     1.000

                            INITIAL TIME STEP SIZE =   1.000000    

                 RECHARGE =  5.000000E-02

 CHD NO.   LAYER   ROW   COL    START HEAD        END HEAD         
 ------------------------------------------------------------------
      1      5      1      1       682.6           682.6    
      2      5      1     47       672.5           672.5    


      2 TIME-VARIANT SPECIFIED-HEAD CELLS
 
 SOLVING FOR HEAD 

    ------------------------------------------------
       NWT REQUIRED            4 OUTER ITERATIONS 
       AND A TOTAL OF          4 INNER ITERATIONS.
    ------------------------------------------------

 OUTPUT CONTROL FOR STRESS PERIOD    2   TIME STEP    1
    SAVE HEAD FOR ALL LAYERS
    SAVE BUDGET

 HEAD WILL BE SAVED ON UNIT   51 AT END OF TIME STEP    1, STRESS PERIOD    2
 
 SOLVING FOR HEAD 

    ------------------------------------------------
       NWT REQUIRED            4 OUTER ITERATIONS 
       AND A TOTAL OF          4 INNER ITERATIONS.
    ------------------------------------------------

 OUTPUT CONTROL FOR STRESS PERIOD    2   TIME STEP    2
    SAVE HEAD FOR ALL LAYERS
    SAVE BUDGET

 HEAD WILL BE SAVED ON UNIT   51 AT END OF TIME STEP    2, STRESS PERIOD    2
 
 SOLVING FOR HEAD 

    ------------------------------------------------
       NWT REQUIRED            5 OUTER ITERATIONS 
       AND A TOTAL OF          5 INNER ITERATIONS.
    ------------------------------------------------

 OUTPUT CONTROL FOR STRESS PERIOD    2   TIME STEP    3
    SAVE HEAD FOR ALL LAYERS
    SAVE BUDGET

 HEAD WILL BE SAVED ON UNIT   51 AT END OF TIME STEP    3, STRESS PERIOD    2
 
 SOLVING FOR HEAD 

    ------------------------------------------------
       NWT REQUIRED            8 OUTER ITERATIONS 
       AND A TOTAL OF         11 INNER ITERATIONS.
    ------------------------------------------------

 OUTPUT CONTROL FOR STRESS PERIOD    2   TIME STEP    4
    SAVE HEAD FOR ALL LAYERS
    SAVE BUDGET

 HEAD WILL BE SAVED ON UNIT   51 AT END OF TIME STEP    4, STRESS PERIOD    2
 
 SOLVING FOR HEAD 

    ------------------------------------------------
       NWT REQUIRED            7 OUTER ITERATIONS 
       AND A TOTAL OF          8 INNER ITERATIONS.
    ------------------------------------------------

 OUTPUT CONTROL FOR STRESS PERIOD    2   TIME STEP    5
    SAVE HEAD FOR ALL LAYERS
    SAVE BUDGET

 HEAD WILL BE SAVED ON UNIT   51 AT END OF TIME STEP    5, STRESS PERIOD    2
1
  VOLUMETRIC BUDGET FOR ENTIRE MODEL AT END OF TIME STEP    5, STRESS PERIOD   2
  ------------------------------------------------------------------------------

     CUMULATIVE VOLUMES      L**3       RATES FOR THIS TIME STEP      L**3/T
     ------------------                 ------------------------

           IN:                                      IN:
           ---                                      ---
             STORAGE     =       8.5414E-24               STORAGE     =       1.8661E-26
       CONSTANT HEAD     =       2.6781E-02         CONSTANT HEAD     =           0.0000
            RECHARGE     =          14.1000              RECHARGE     =           2.8200

                TOTAL IN =          14.1268                  TOTAL IN =           2.8200

          OUT:                                     OUT:
          ----                                     ----
             STORAGE     =          11.9287               STORAGE     =           2.1942
       CONSTANT HEAD     =           2.1983         CONSTANT HEAD     =           0.6258
            RECHARGE     =           0.0000              RECHARGE     =           0.0000

               TOTAL OUT =          14.1270                 TOTAL OUT =           2.8200

                IN - OUT =      -2.1553E-04                  IN - OUT =       1.9073E-06

     PERCENT DISCREPANCY =          -0.00         PERCENT DISCREPANCY =           0.00






         TIME SUMMARY AT END OF TIME STEP    5 IN STRESS PERIOD    2
                    SECONDS     MINUTES      HOURS       DAYS        YEARS
                    -----------------------------------------------------------
   TIME STEP LENGTH  86400.      1440.0      24.000      1.0000     2.73785E-03
 STRESS PERIOD TIME 4.32000E+05  7200.0      120.00      5.0000     1.36893E-02
         TOTAL TIME 5.18400E+05  8640.0      144.00      6.0000     1.64271E-02
1
1
                            STRESS PERIOD NO.    3, LENGTH =   10.00000    
                            -----------------------------------------------

                              NUMBER OF TIME STEPS =    10

                               MULTIPLIER FOR DELT =     1.000

                            INITIAL TIME STEP SIZE =   1.000000    

                 RECHARGE =   0.00000    

 CHD NO.   LAYER   ROW   COL    START HEAD        END HEAD         
 ------------------------------------------------------------------
      1      5      1      1       682.6           682.6    
      2      5      1     47       672.5           672.5    


      2 TIME-VARIANT SPECIFIED-HEAD CELLS
 
 SOLVING FOR HEAD 

    ------------------------------------------------
       NWT REQUIRED            6 OUTER ITERATIONS 
       AND A TOTAL OF          8 INNER ITERATIONS.
    ------------------------------------------------

 OUTPUT CONTROL FOR STRESS PERIOD    3   TIME STEP    1
    SAVE HEAD FOR ALL LAYERS
    SAVE BUDGET

 HEAD WILL BE SAVED ON UNIT   51 AT END OF TIME STEP    1, STRESS PERIOD    3
 
 SOLVING FOR HEAD 

    ------------------------------------------------
       NWT REQUIRED            4 OUTER ITERATIONS 
       AND A TOTAL OF          4 INNER ITERATIONS.
    ------------------------------------------------

 OUTPUT CONTROL FOR STRESS PERIOD    3   TIME STEP    2
    SAVE HEAD FOR ALL LAYERS
    SAVE BUDGET

 HEAD WILL BE SAVED ON UNIT   51 AT END OF TIME STEP    2, STRESS PERIOD    3
 
 SOLVING FOR HEAD 

    ------------------------------------------------
       NWT REQUIRED            3 OUTER ITERATIONS 
       AND A TOTAL OF          3 INNER ITERATIONS.
    ------------------------------------------------

 OUTPUT CONTROL FOR STRESS PERIOD    3   TIME STEP    3
    SAVE HEAD FOR ALL LAYERS
    SAVE BUDGET

 HEAD WILL BE SAVED ON UNIT   51 AT END OF TIME STEP    3, STRESS PERIOD    3
 
 SOLVING FOR HEAD 

    ------------------------------------------------
       NWT REQUIRED            3 OUTER ITERATIONS 
       AND A TOTAL OF          3 INNER ITERATIONS.
    ------------------------------------------------

 OUTPUT CONTROL FOR STRESS PERIOD    3   TIME STEP    4
    SAVE HEAD FOR ALL LAYERS
    SAVE BUDGET

 HEAD WILL BE SAVED ON UNIT   51 AT END OF TIME STEP    4, STRESS PERIOD    3
 
 SOLVING FOR HEAD 

    ------------------------------------------------
       NWT REQUIRED            3 OUTER ITERATIONS 
       AND A TOTAL OF          3 INNER ITERATIONS.
    ------------------------------------------------

 OUTPUT CONTROL FOR STRESS PERIOD    3   TIME STEP    5
    SAVE HEAD FOR ALL LAYERS
    SAVE BUDGET

 HEAD WILL BE SAVED ON UNIT   51 AT END OF TIME STEP    5, STRESS PERIOD    3
 
 SOLVING FOR HEAD 

    ------------------------------------------------
       NWT REQUIRED            3 OUTER ITERATIONS 
       AND A TOTAL OF          3 INNER ITERATIONS.
    ------------------------------------------------

 OUTPUT CONTROL FOR STRESS PERIOD    3   TIME STEP    6
    SAVE HEAD FOR ALL LAYERS
    SAVE BUDGET

 HEAD WILL BE SAVED ON UNIT   51 AT END OF TIME STEP    6, STRESS PERIOD    3
 
 SOLVING FOR HEAD 

    ------------------------------------------------
       NWT REQUIRED            3 OUTER ITERATIONS 
       AND A TOTAL OF          3 INNER ITERATIONS.
    ------------------------------------------------

 OUTPUT CONTROL FOR STRESS PERIOD    3   TIME STEP    7
    SAVE HEAD FOR ALL LAYERS
    SAVE BUDGET

 HEAD WILL BE SAVED ON UNIT   51 AT END OF TIME STEP    7, STRESS PERIOD    3
 
 SOLVING FOR HEAD 

    ------------------------------------------------
       NWT REQUIRED            3 OUTER ITERATIONS 
       AND A TOTAL OF          3 INNER ITERATIONS.
    ------------------------------------------------

 OUTPUT CONTROL FOR STRESS PERIOD    3   TIME STEP    8
    SAVE HEAD FOR ALL LAYERS
    SAVE BUDGET

 HEAD WILL BE SAVED ON UNIT   51 AT END OF TIME STEP    8, STRESS PERIOD    3
 
 SOLVING FOR HEAD 

    ------------------------------------------------
       NWT REQUIRED            3 OUTER ITERATIONS 
       AND A TOTAL OF          3 INNER ITERATIONS.
    ------------------------------------------------

 OUTPUT CONTROL FOR STRESS PERIOD    3   TIME STEP    9
    SAVE HEAD FOR ALL LAYERS
    SAVE BUDGET

 HEAD WILL BE SAVED ON UNIT   51 AT END OF TIME STEP    9, STRESS PERIOD    3
 
 SOLVING FOR HEAD 

    ------------------------------------------------
       NWT REQUIRED            3 OUTER ITERATIONS 
       AND A TOTAL OF          3 INNER ITERATIONS.
    ------------------------------------------------

 OUTPUT CONTROL FOR STRESS PERIOD    3   TIME STEP   10
    SAVE HEAD FOR ALL LAYERS
    SAVE BUDGET

 HEAD WILL BE SAVED ON UNIT   51 AT END OF TIME STEP   10, STRESS PERIOD    3
1
  VOLUMETRIC BUDGET FOR ENTIRE MODEL AT END OF TIME STEP   10, STRESS PERIOD   3
  ------------------------------------------------------------------------------

     CUMULATIVE VOLUMES      L**3       RATES FOR THIS TIME STEP      L**3/T
     ------------------                 ------------------------

           IN:                                      IN:
           ---                                      ---
             STORAGE     =           3.3696               STORAGE     =           0.2435
       CONSTANT HEAD     =       2.6781E-02         CONSTANT HEAD     =           0.0000
            RECHARGE     =          14.1000              RECHARGE     =           0.0000

                TOTAL IN =          17.4963                  TOTAL IN =           0.2435

          OUT:                                     OUT:
          ----                                     ----
             STORAGE     =          12.3061               STORAGE     =       9.7847E-26
       CONSTANT HEAD     =           5.1899         CONSTANT HEAD     =           0.2435
            RECHARGE     =           0.0000              RECHARGE     =           0.0000

               TOTAL OUT =          17.4960                 TOTAL OUT =           0.2435

                IN - OUT =       3.7193E-04                  IN - OUT =       6.2972E-05

     PERCENT DISCREPANCY =           0.00         PERCENT DISCREPANCY =           0.03






         TIME SUMMARY AT END OF TIME STEP   10 IN STRESS PERIOD    3
                    SECONDS     MINUTES      HOURS       DAYS        YEARS
                    -----------------------------------------------------------
   TIME STEP LENGTH  86400.      1440.0      24.000      1.0000     2.73785E-03
 STRESS PERIOD TIME 8.64000E+05  14400.      240.00      10.000     2.73785E-02
         TOTAL TIME 1.38240E+06  23040.      384.00      16.000     4.38056E-02
1

 Run end date and time (yyyy/mm/dd hh:mm:ss): 2026/04/25 12:42:48
 Elapsed run time:  0.117 Seconds

